   Input file: U_HFO_input3.txt
  Output file: Outputfile3.out
Database file: llnl_Mahoney_updated.txt

------------------
Reading data base.
------------------

	LLNL_AQUEOUS_MODEL_PARAMETERS
	NAMED_EXPRESSIONS
	SOLUTION_MASTER_SPECIES
	SOLUTION_SPECIES
	PHASES
	EXCHANGE_MASTER_SPECIES
	EXCHANGE_SPECIES
	SURFACE_MASTER_SPECIES
	SURFACE_SPECIES
	RATES
	END
------------------------------------
Reading input data for simulation 1.
------------------------------------

	TITLE Example 8.--Sorption of Uranium on hydrous iron oxides.
	SELECTED_OUTPUT
	     file U_HFO_Complexation_Output_Trial3.sel
	     reset false
	     simulation true
	     state true
	     totals U
	     ph true
	     molalities     Hfo_sOUO2+ Hfo_wOUO2+ Hfo_wOUO2CO3- Hfo_wOUO2(CO3)2-3 Hfo_wOH Hfo_wO- Hfo_wOH2+ Hfo_sOH  Hfo_sO- Hfo_sOH2+
	     high_precision false
	PHASES
	     Fix_H+
	     H+ = H+
	     log_k 0.0
	SOLUTION  1
	units mol/kgw
	pH  3.56
	Na 0.1
	N  0.1
	U  1E-7
	Cl 0.1 charge
	SOLUTION  2
	units mol/kgw
	pH  4.08
	Na 0.1
	N  0.1
	U  1E-7
	Cl 0.1 charge
	SOLUTION  3
	units mol/kgw
	pH  4.52
	Na 0.1
	N  0.1
	U  1E-7
	Cl 0.1 charge
	SOLUTION  4
	units mol/kgw
	pH  5.00
	Na 0.1
	N  0.1
	U  1E-7
	Cl 0.1 charge
	SOLUTION  5
	units mol/kgw
	pH  5.48
	Na 0.1
	N  0.1
	U  1E-7
	Cl 0.1 charge
	SOLUTION  6
	units mol/kgw
	pH  5.94
	Na 0.1
	N  0.1
	U  1E-7
	Cl 0.1 charge
	SURFACE  1-6
	no_edl
	sites_units density
	     Hfo_sOH        0.056    600.    0.1069
	     Hfo_wOH        2.254
	EQUILIBRIUM_PHASES  1
	Fix_H+  -3.56E+00  NaOH  0.1
	O2(g)  -6.99E-01  10.0
	CO2(g)  -3.44E+00  10.0
	EQUILIBRIUM_PHASES  2
	Fix_H+  -4.08E+00  NaOH  0.1
	O2(g)  -6.99E-01  10.0
	CO2(g)  -3.44E+00  10.0
	EQUILIBRIUM_PHASES  3
	Fix_H+  -4.52E+00  NaOH  0.1
	O2(g)  -6.99E-01  10.0
	CO2(g)  -3.44E+00  10.0
	EQUILIBRIUM_PHASES  4
	Fix_H+  -5.00E+00  NaOH  0.1
	O2(g)  -6.99E-01  10.0
	CO2(g)  -3.44E+00  10.0
	EQUILIBRIUM_PHASES  5
	Fix_H+  -5.48E+00  NaOH  0.1
	O2(g)  -6.99E-01  10.0
	CO2(g)  -3.44E+00  10.0
	EQUILIBRIUM_PHASES  6
	Fix_H+  -5.94E+00  NaOH  0.1
	O2(g)  -6.99E-01  10.0
	CO2(g)  -3.44E+00  10.0
	END
-----
TITLE
-----

 Example 8.--Sorption of Uranium on hydrous iron oxides.

-------------------------------------------
Beginning of initial solution calculations.
-------------------------------------------

Initial solution 1.	

-----------------------------Solution composition------------------------------

	Elements           Molality       Moles

	Cl                1.003e-01   1.003e-01  Charge balance
	N                 1.000e-01   1.000e-01
	Na                1.000e-01   1.000e-01
	U                 1.000e-07   1.000e-07

----------------------------Description of solution----------------------------

                                       pH  =   3.560    
                                       pe  =   4.000    
                        Activity of water  =   0.996
                 Ionic strength (mol/kgw)  =   9.931e-02
                       Mass of water (kg)  =   1.000e+00
                 Total alkalinity (eq/kg)  =  -3.353e-04
                         Temperature (°C)  =  25.00
                  Electrical balance (eq)  =  -3.168e-13
 Percent error, 100*(Cat-|An|)/(Cat+|An|)  =  -0.00
                               Iterations  =   8
                                  Total H  = 1.110510e+02
                                  Total O  = 5.552533e+01

----------------------------Distribution of species----------------------------

                                               Log       Log       Log    mole V
   Species          Molality    Activity  Molality  Activity     Gamma   cm³/mol

   H+              3.306e-04   2.754e-04    -3.481    -3.560    -0.079      0.00
   OH-             4.531e-11   3.483e-11   -10.344   -10.458    -0.114     (0)  
   H2O             5.553e+01   9.958e-01     1.744    -0.002     0.000     (0)  
Cl(-1)        1.003e-01
   Cl-             9.931e-02   7.553e-02    -1.003    -1.122    -0.119     (0)  
   NaCl            1.020e-03   1.020e-03    -2.991    -2.991     0.000     (0)  
   HCl             4.672e-06   4.672e-06    -5.330    -5.330     0.000     (0)  
   UO2Cl+          4.981e-09   3.868e-09    -8.303    -8.413    -0.110     (0)  
   UO2Cl2          1.496e-11   1.496e-11   -10.825   -10.825     0.000     (0)  
   UCl+3           7.900e-20   8.836e-21   -19.102   -20.054    -0.951     (0)  
Cl(1)         0.000e+00
   HClO            0.000e+00   0.000e+00   -40.103   -40.103     0.000     (0)  
   ClO-            0.000e+00   0.000e+00   -44.002   -44.112    -0.110     (0)  
Cl(3)         0.000e+00
   ClO2-           0.000e+00   0.000e+00   -79.887   -79.997    -0.110     (0)  
   HClO2           0.000e+00   0.000e+00   -80.387   -80.387     0.000     (0)  
Cl(5)         0.000e+00
   ClO3-           0.000e+00   0.000e+00  -101.916  -102.030    -0.114     (0)  
   UO2ClO3+        0.000e+00   0.000e+00  -108.877  -108.987    -0.110     (0)  
Cl(7)         0.000e+00
   ClO4-           0.000e+00   0.000e+00  -128.250  -128.364    -0.114     (0)  
H(0)          1.175e-18
   H2              5.877e-19   6.019e-19   -18.231   -18.220     0.010     (0)  
N(-03)        0.000e+00
   HN3             0.000e+00   0.000e+00   -61.052   -61.052     0.000     (0)  
   N3-             0.000e+00   0.000e+00   -62.084   -62.194    -0.110     (0)  
   UO2N3+          0.000e+00   0.000e+00   -66.968   -67.078    -0.110     (0)  
   UO2(N3)2        0.000e+00   0.000e+00  -127.522  -127.522     0.000     (0)  
   UO2(N3)3-       0.000e+00   0.000e+00  -188.196  -188.306    -0.110     (0)  
   UO2(N3)4-2      0.000e+00   0.000e+00  -250.868  -251.320    -0.452     (0)  
N(-3)         5.500e-12
   NH4+            5.500e-12   4.135e-12   -11.260   -11.384    -0.124     (0)  
   NH3             8.640e-18   8.640e-18   -17.063   -17.063     0.000     (0)  
N(0)          1.000e-01
   N2              5.000e-02   5.000e-02    -1.301    -1.301     0.000     (0)  
N(3)          0.000e+00
   NO2-            0.000e+00   0.000e+00   -50.186   -50.305    -0.119     (0)  
   HNO2            0.000e+00   0.000e+00   -50.633   -50.633     0.000     (0)  
N(5)          0.000e+00
   NO3-            0.000e+00   0.000e+00   -62.832   -62.951    -0.119     (0)  
   HNO3            0.000e+00   0.000e+00   -67.793   -67.793     0.000     (0)  
   UO2NO3+         0.000e+00   0.000e+00   -70.024   -70.134    -0.110     (0)  
   UNO3+3          0.000e+00   0.000e+00   -81.198   -82.150    -0.951     (0)  
   U(NO3)2+2       0.000e+00   0.000e+00  -143.855  -144.291    -0.436     (0)  
Na            1.000e-01
   Na+             9.898e-02   7.686e-02    -1.004    -1.114    -0.110     (0)  
   NaCl            1.020e-03   1.020e-03    -2.991    -2.991     0.000     (0)  
   NaOH            4.619e-13   4.619e-13   -12.335   -12.335     0.000     (0)  
O(0)          0.000e+00
   O2              0.000e+00   0.000e+00   -55.769   -55.759     0.010     (0)  
U(3)          8.957e-34
   U+3             8.957e-34   1.002e-34   -33.048   -33.999    -0.951     (0)  
U(4)          1.106e-11
   U(OH)4          1.106e-11   1.106e-11   -10.956   -10.956     0.000     (0)  
   UOH+3           2.062e-17   2.307e-18   -16.686   -17.637    -0.951     (0)  
   U+4             9.753e-20   2.242e-21   -19.011   -20.649    -1.638     (0)  
   UCl+3           7.900e-20   8.836e-21   -19.102   -20.054    -0.951     (0)  
   UNO3+3          0.000e+00   0.000e+00   -81.198   -82.150    -0.951     (0)  
   U(NO3)2+2       0.000e+00   0.000e+00  -143.855  -144.291    -0.436     (0)  
U(5)          1.341e-10
   UO2+            1.341e-10   1.041e-10    -9.873    -9.982    -0.110     (0)  
U(6)          9.985e-08
   UO2+2           9.384e-08   3.442e-08    -7.028    -7.463    -0.436     (0)  
   UO2Cl+          4.981e-09   3.868e-09    -8.303    -8.413    -0.110     (0)  
   UO2OH+          9.920e-10   7.703e-10    -9.003    -9.113    -0.110     (0)  
   UO2(OH)2        2.180e-11   2.180e-11   -10.661   -10.661     0.000     (0)  
   UO2Cl2          1.496e-11   1.496e-11   -10.825   -10.825     0.000     (0)  
   (UO2)2(OH)2+2   9.817e-14   3.601e-14   -13.008   -13.444    -0.436     (0)  
   (UO2)2OH+3      7.516e-14   8.407e-15   -13.124   -14.075    -0.951     (0)  
   UO2(OH)3-       1.257e-16   9.761e-17   -15.901   -16.011    -0.110     (0)  
   (UO2)3(OH)4+2   2.237e-20   8.206e-21   -19.650   -20.086    -0.436     (0)  
   (UO2)3(OH)5+    8.265e-21   6.418e-21   -20.083   -20.193    -0.110     (0)  
   UO2(OH)4-2      1.556e-26   5.500e-27   -25.808   -26.260    -0.452     (0)  
   (UO2)4(OH)7+    1.635e-27   1.269e-27   -26.787   -26.896    -0.110     (0)  
   (UO2)3(OH)7-    3.773e-29   2.929e-29   -28.423   -28.533    -0.110     (0)  
   UO2N3+          0.000e+00   0.000e+00   -66.968   -67.078    -0.110     (0)  
   UO2NO3+         0.000e+00   0.000e+00   -70.024   -70.134    -0.110     (0)  
   UO2ClO3+        0.000e+00   0.000e+00  -108.877  -108.987    -0.110     (0)  
   UO2(N3)2        0.000e+00   0.000e+00  -127.522  -127.522     0.000     (0)  
   UO2(N3)3-       0.000e+00   0.000e+00  -188.196  -188.306    -0.110     (0)  
   UO2(N3)4-2      0.000e+00   0.000e+00  -250.868  -251.320    -0.452     (0)  

------------------------------Saturation indices-------------------------------

  Phase               SI** log IAP   log K(298 K,   1 atm)

  (UO2)2Cl3       -33.49    -20.81   12.68  (UO2)2Cl3
  Cl2(g)          -40.24    -37.24    2.99  Cl2
  Fix_H+           -3.56     -3.56    0.00  H+
  H2(g)           -15.12    -18.22   -3.10  H2
  H2O(g)           -1.59     -0.00    1.59  H2O
  Halite           -3.80     -2.24    1.56  NaCl
  HCl(g)          -10.98     -4.68    6.30  HCl
  Ice              -0.14     -0.00    0.14  H2O
  N2(g)             1.88     -1.30   -3.18  N2
  Na              -50.99     16.38   67.37  Na
  Na(g)           -64.47     16.38   80.86  Na
  Na2O            -62.53      4.89   67.42  Na2O
  Na2U2O7         -18.39      4.20   22.59  Na2U2O7
  Na2UO4(alpha)   -25.47      4.54   30.02  Na2UO4
  Na3UO4          -55.33      0.91   56.24  Na3UO4
  NaUO3           -12.31     -3.98    8.33  NaUO3
  NH3(g)          -18.86    -17.06    1.80  NH3
  NO(g)           -40.66    -39.92    0.74  NO
  NO2(g)          -60.92    -52.57    8.35  NO2
  O2(g)           -52.87    -55.76   -2.89  O2
  Schoepite        -5.18     -0.35    4.83  UO3:2H2O
  Schoepite-dehy(.393)  -7.07     -0.35    6.72  UO3:.393H2O
  Schoepite-dehy(.648)  -6.55     -0.35    6.21  UO3:.648H2O
  Schoepite-dehy(.85)  -5.44     -0.35    5.10  UO3:.85H2O
  Schoepite-dehy(.9)  -5.37     -0.35    5.02  UO3:.9H2O
  Schoepite-dehy(1.0)  -5.45     -0.35    5.10  UO3:H2O
  U              -129.47     83.29  212.77  U
  U(g)           -215.03     83.29  298.32  U
  U2Cl10(g)      -142.26    -59.66   82.60  U2Cl10
  U2Cl8(g)       -132.55    -50.27   82.27  U2Cl8
  U2O2Cl5         -55.43    -36.24   19.19  U2O2Cl5
  U5O12Cl         -18.01    -36.80  -18.79  U5O12Cl
  UCl(g)         -177.10     44.65  221.75  UCl
  UCl2(g)        -137.69     46.05  183.74  UCl2
  UCl3            -50.33    -37.36   12.97  UCl3
  UCl3(g)         -95.95    -37.36   58.58  UCl3
  UCl4            -47.05    -25.14   21.92  UCl4
  UCl4(g)         -71.49    -25.14   46.35  UCl4
  UCl5            -67.06    -29.83   37.23  UCl5
  UCl5(g)         -84.28    -29.83   54.45  UCl5
  UCl6            -85.93    -28.43   57.50  UCl6
  UCl6(g)         -91.80    -28.43   63.37  UCl6
  UH3(beta)      -139.45     60.31  199.77  UH3
  UN              -82.08    -40.38   41.70  UN
  UN1.59(alpha)   -68.73    -30.34   38.39  UN1.59
  UN1.73(alpha)   -65.88    -38.59   27.29  UN1.73
  UO(g)          -156.23     55.41  211.65  UO
  UO2(am)          -6.52     -6.41    0.11  UO2
  UO2(g)          -98.06     27.53  125.60  UO2
  UO2(NO3)2      -145.32   -133.37   11.95  UO2(NO3)2
  UO2(NO3)2:2H2O -138.28   -133.37    4.91  UO2(NO3)2:2H2O
  UO2(NO3)2:3H2O -137.06   -133.37    3.68  UO2(NO3)2:3H2O
  UO2(NO3)2:6H2O -135.67   -133.38    2.29  UO2(NO3)2:6H2O
  UO2(NO3)2:H2O  -141.87   -133.37    8.50  UO2(NO3)2:H2O
  UO2(OH)2(beta)   -5.29     -0.35    4.95  UO2(OH)2
  UO2.25           -1.58     -6.42   -4.84  UO2.25
  UO2.25(beta)     -1.66     -6.42   -4.76  UO2.25
  UO2.3333(beta)   -3.70    -31.41  -27.71  (UO2.3333)2
  UO2.6667         -6.40    -50.00  -43.60  (UO2.6667)2
  UO2Cl           -10.57    -11.10   -0.53  UO2Cl
  UO2Cl2          -21.82     -9.71   12.11  UO2Cl2
  UO2Cl2(g)       -57.64     -9.71   47.93  UO2Cl2
  UO2Cl2:3H2O     -15.32     -9.71    5.61  UO2Cl2:3H2O
  UO2Cl2:H2O      -17.99     -9.71    8.28  UO2Cl2:H2O
  UO2ClOH:2H2O     -7.33     -5.03    2.30  UO2ClOH:2H2O
  UO3(alpha)       -8.99     -0.35    8.64  UO3
  UO3(beta)        -8.66     -0.35    8.31  UO3
  UO3(g)          -71.29     -0.35   70.95  UO3
  UO3(gamma)       -8.05     -0.35    7.71  UO3
  UO3:.9H2O(alpha)  -5.37     -0.35    5.02  UO3:.9H2O
  UO3:2H2O         -5.18     -0.35    4.84  UO3:2H2O
  UOCl            -38.37    -28.00   10.37  UOCl
  UOCl2           -21.20    -15.77    5.42  UOCl2
  UOCl3           -33.05    -20.47   12.58  UOCl3
  Uraninite        -1.58     -6.41   -4.83  UO2

**For a gas, SI = log10(fugacity). Fugacity = pressure * phi / 1 atm.
  For ideal gases, phi = 1.

Initial solution 2.	

-----------------------------Solution composition------------------------------

	Elements           Molality       Moles

	Cl                1.001e-01   1.001e-01  Charge balance
	N                 1.000e-01   1.000e-01
	Na                1.000e-01   1.000e-01
	U                 1.000e-07   1.000e-07

----------------------------Description of solution----------------------------

                                       pH  =   4.080    
                                       pe  =   4.000    
                        Activity of water  =   0.996
                 Ionic strength (mol/kgw)  =   9.908e-02
                       Mass of water (kg)  =   1.000e+00
                 Total alkalinity (eq/kg)  =  -1.012e-04
                         Temperature (°C)  =  25.00
                  Electrical balance (eq)  =  -1.991e-15
 Percent error, 100*(Cat-|An|)/(Cat+|An|)  =  -0.00
                               Iterations  =   9 (17 overall)
                                  Total H  = 1.110508e+02
                                  Total O  = 5.552533e+01

----------------------------Distribution of species----------------------------

                                               Log       Log       Log    mole V
   Species          Molality    Activity  Molality  Activity     Gamma   cm³/mol

   H+              9.983e-05   8.318e-05    -4.001    -4.080    -0.079      0.00
   OH-             1.500e-10   1.153e-10    -9.824    -9.938    -0.114     (0)  
   H2O             5.553e+01   9.958e-01     1.744    -0.002     0.000     (0)  
Cl(-1)        1.001e-01
   Cl-             9.908e-02   7.537e-02    -1.004    -1.123    -0.119     (0)  
   NaCl            1.018e-03   1.018e-03    -2.992    -2.992     0.000     (0)  
   HCl             1.408e-06   1.408e-06    -5.851    -5.851     0.000     (0)  
   UO2Cl+          4.852e-09   3.768e-09    -8.314    -8.424    -0.110     (0)  
   UO2Cl2          1.454e-11   1.454e-11   -10.837   -10.837     0.000     (0)  
   UCl+3           6.391e-22   7.160e-23   -21.194   -22.145    -0.951     (0)  
Cl(1)         2.607e-40
   HClO            2.607e-40   2.607e-40   -39.584   -39.584     0.000     (0)  
   ClO-            0.000e+00   0.000e+00   -42.963   -43.073    -0.110     (0)  
Cl(3)         0.000e+00
   ClO2-           0.000e+00   0.000e+00   -77.808   -77.918    -0.110     (0)  
   HClO2           0.000e+00   0.000e+00   -78.828   -78.828     0.000     (0)  
Cl(5)         0.000e+00
   ClO3-           0.000e+00   0.000e+00   -98.797   -98.911    -0.114     (0)  
   UO2ClO3+        0.000e+00   0.000e+00  -105.769  -105.879    -0.110     (0)  
Cl(7)         0.000e+00
   ClO4-           0.000e+00   0.000e+00  -124.091  -124.205    -0.114     (0)  
H(0)          1.072e-19
   H2              5.361e-20   5.490e-20   -19.271   -19.260     0.010     (0)  
N(-03)        0.000e+00
   HN3             0.000e+00   0.000e+00   -61.572   -61.572     0.000     (0)  
   N3-             0.000e+00   0.000e+00   -62.084   -62.194    -0.110     (0)  
   UO2N3+          0.000e+00   0.000e+00   -66.978   -67.088    -0.110     (0)  
   UO2(N3)2        0.000e+00   0.000e+00  -127.532  -127.532     0.000     (0)  
   UO2(N3)3-       0.000e+00   0.000e+00  -188.206  -188.316    -0.110     (0)  
   UO2(N3)4-2      0.000e+00   0.000e+00  -250.879  -251.331    -0.451     (0)  
N(-3)         4.574e-14
   NH4+            4.574e-14   3.439e-14   -13.340   -13.464    -0.124     (0)  
   NH3             2.380e-19   2.380e-19   -18.623   -18.623     0.000     (0)  
N(0)          1.000e-01
   N2              5.000e-02   5.000e-02    -1.301    -1.301     0.000     (0)  
N(3)          0.000e+00
   NO2-            0.000e+00   0.000e+00   -48.106   -48.225    -0.119     (0)  
   HNO2            0.000e+00   0.000e+00   -49.073   -49.073     0.000     (0)  
N(5)          0.000e+00
   NO3-            0.000e+00   0.000e+00   -59.712   -59.831    -0.119     (0)  
   HNO3            0.000e+00   0.000e+00   -65.193   -65.193     0.000     (0)  
   UO2NO3+         0.000e+00   0.000e+00   -66.914   -67.024    -0.110     (0)  
   UNO3+3          0.000e+00   0.000e+00   -80.170   -81.120    -0.951     (0)  
   U(NO3)2+2       0.000e+00   0.000e+00  -139.706  -140.141    -0.435     (0)  
Na            1.000e-01
   Na+             9.898e-02   7.687e-02    -1.004    -1.114    -0.110     (0)  
   NaCl            1.018e-03   1.018e-03    -2.992    -2.992     0.000     (0)  
   NaOH            1.530e-12   1.530e-12   -11.815   -11.815     0.000     (0)  
O(0)          0.000e+00
   O2              0.000e+00   0.000e+00   -53.689   -53.679     0.010     (0)  
U(3)          7.262e-36
   U+3             7.262e-36   8.135e-37   -35.139   -36.090    -0.951     (0)  
U(4)          1.080e-11
   U(OH)4          1.080e-11   1.080e-11   -10.966   -10.966     0.000     (0)  
   UOH+3           5.536e-19   6.202e-20   -18.257   -19.207    -0.951     (0)  
   U+4             7.898e-22   1.821e-23   -21.102   -22.740    -1.637     (0)  
   UCl+3           6.391e-22   7.160e-23   -21.194   -22.145    -0.951     (0)  
   UNO3+3          0.000e+00   0.000e+00   -80.170   -81.120    -0.951     (0)  
   U(NO3)2+2       0.000e+00   0.000e+00  -139.706  -140.141    -0.435     (0)  
U(5)          1.309e-10
   UO2+            1.309e-10   1.017e-10    -9.883    -9.993    -0.110     (0)  
U(6)          9.986e-08
   UO2+2           9.155e-08   3.361e-08    -7.038    -7.474    -0.435     (0)  
   UO2Cl+          4.852e-09   3.768e-09    -8.314    -8.424    -0.110     (0)  
   UO2OH+          3.206e-09   2.490e-09    -8.494    -8.604    -0.110     (0)  
   UO2(OH)2        2.334e-10   2.334e-10    -9.632    -9.632     0.000     (0)  
   UO2Cl2          1.454e-11   1.454e-11   -10.837   -10.837     0.000     (0)  
   (UO2)2(OH)2+2   1.025e-12   3.763e-13   -11.989   -12.424    -0.435     (0)  
   (UO2)2OH+3      2.368e-13   2.653e-14   -12.626   -13.576    -0.951     (0)  
   UO2(OH)3-       4.455e-15   3.460e-15   -14.351   -14.461    -0.110     (0)  
   (UO2)3(OH)5+    3.062e-18   2.378e-18   -17.514   -17.624    -0.110     (0)  
   (UO2)3(OH)4+2   2.501e-18   9.181e-19   -17.602   -18.037    -0.435     (0)  
   (UO2)4(OH)7+    6.483e-24   5.035e-24   -23.188   -23.298    -0.110     (0)  
   UO2(OH)4-2      1.825e-24   6.456e-25   -23.739   -24.190    -0.451     (0)  
   (UO2)3(OH)7-    1.532e-25   1.190e-25   -24.815   -24.924    -0.110     (0)  
   UO2NO3+         0.000e+00   0.000e+00   -66.914   -67.024    -0.110     (0)  
   UO2N3+          0.000e+00   0.000e+00   -66.978   -67.088    -0.110     (0)  
   UO2ClO3+        0.000e+00   0.000e+00  -105.769  -105.879    -0.110     (0)  
   UO2(N3)2        0.000e+00   0.000e+00  -127.532  -127.532     0.000     (0)  
   UO2(N3)3-       0.000e+00   0.000e+00  -188.206  -188.316    -0.110     (0)  
   UO2(N3)4-2      0.000e+00   0.000e+00  -250.879  -251.331    -0.451     (0)  

------------------------------Saturation indices-------------------------------

  Phase               SI** log IAP   log K(298 K,   1 atm)

  (UO2)2Cl3       -33.51    -20.83   12.68  (UO2)2Cl3
  Cl2(g)          -40.24    -37.24    2.99  Cl2
  Fix_H+           -4.08     -4.08    0.00  H+
  H2(g)           -16.16    -19.26   -3.10  H2
  H2O(g)           -1.59     -0.00    1.59  H2O
  Halite           -3.80     -2.24    1.56  NaCl
  HCl(g)          -11.50     -5.20    6.30  HCl
  Ice              -0.14     -0.00    0.14  H2O
  N2(g)             1.88     -1.30   -3.18  N2
  Na              -50.99     16.38   67.37  Na
  Na(g)           -64.47     16.38   80.86  Na
  Na2O            -61.49      5.93   67.42  Na2O
  Na2U2O7         -15.29      7.30   22.59  Na2U2O7
  Na2UO4(alpha)   -23.40      6.61   30.02  Na2UO4
  Na3UO4          -53.26      2.98   56.24  Na3UO4
  NaUO3           -11.28     -2.95    8.33  NaUO3
  NH3(g)          -20.42    -18.62    1.80  NH3
  NO(g)           -39.62    -38.88    0.74  NO
  NO2(g)          -58.84    -50.49    8.35  NO2
  O2(g)           -50.79    -53.68   -2.89  O2
  Schoepite        -4.15      0.68    4.83  UO3:2H2O
  Schoepite-dehy(.393)  -6.04      0.68    6.72  UO3:.393H2O
  Schoepite-dehy(.648)  -5.52      0.68    6.21  UO3:.648H2O
  Schoepite-dehy(.85)  -4.41      0.68    5.10  UO3:.85H2O
  Schoepite-dehy(.9)  -4.34      0.68    5.02  UO3:.9H2O
  Schoepite-dehy(1.0)  -4.42      0.68    5.10  UO3:H2O
  U              -131.56     81.20  212.77  U
  U(g)           -217.12     81.20  298.32  U
  U2Cl10(g)      -146.45    -63.85   82.60  U2Cl10
  U2Cl8(g)       -136.74    -54.46   82.27  U2Cl8
  U2O2Cl5         -57.53    -38.35   19.19  U2O2Cl5
  U5O12Cl         -15.98    -34.77  -18.79  U5O12Cl
  UCl(g)         -179.19     42.56  221.75  UCl
  UCl2(g)        -139.78     43.96  183.74  UCl2
  UCl3            -52.43    -39.46   12.97  UCl3
  UCl3(g)         -98.04    -39.46   58.58  UCl3
  UCl4            -49.15    -27.23   21.92  UCl4
  UCl4(g)         -73.58    -27.23   46.35  UCl4
  UCl5            -69.15    -31.92   37.23  UCl5
  UCl5(g)         -86.37    -31.92   54.45  UCl5
  UCl6            -88.02    -30.53   57.50  UCl6
  UCl6(g)         -93.90    -30.53   63.37  UCl6
  UH3(beta)      -143.10     56.66  199.77  UH3
  UN              -84.17    -42.47   41.70  UN
  UN1.59(alpha)   -70.82    -32.43   38.39  UN1.59
  UN1.73(alpha)   -67.97    -40.68   27.29  UN1.73
  UO(g)          -157.28     54.36  211.65  UO
  UO2(am)          -6.53     -6.42    0.11  UO2
  UO2(g)          -98.07     27.52  125.60  UO2
  UO2(NO3)2      -139.09   -127.14   11.95  UO2(NO3)2
  UO2(NO3)2:2H2O -132.05   -127.14    4.91  UO2(NO3)2:2H2O
  UO2(NO3)2:3H2O -130.83   -127.14    3.68  UO2(NO3)2:3H2O
  UO2(NO3)2:6H2O -129.44   -127.15    2.29  UO2(NO3)2:6H2O
  UO2(NO3)2:H2O  -135.64   -127.14    8.50  UO2(NO3)2:H2O
  UO2(OH)2(beta)   -4.26      0.68    4.95  UO2(OH)2
  UO2.25           -1.33     -6.17   -4.84  UO2.25
  UO2.25(beta)     -1.41     -6.17   -4.76  UO2.25
  UO2.3333(beta)   -3.02    -30.74  -27.71  (UO2.3333)2
  UO2.6667         -5.03    -48.63  -43.60  (UO2.6667)2
  UO2Cl           -10.58    -11.12   -0.53  UO2Cl
  UO2Cl2          -21.83     -9.72   12.11  UO2Cl2
  UO2Cl2(g)       -57.65     -9.72   47.93  UO2Cl2
  UO2Cl2:3H2O     -15.34     -9.72    5.61  UO2Cl2:3H2O
  UO2Cl2:H2O      -18.00     -9.72    8.28  UO2Cl2:H2O
  UO2ClOH:2H2O     -6.83     -4.52    2.30  UO2ClOH:2H2O
  UO3(alpha)       -7.96      0.68    8.64  UO3
  UO3(beta)        -7.63      0.68    8.31  UO3
  UO3(g)          -70.26      0.68   70.95  UO3
  UO3(gamma)       -7.02      0.68    7.71  UO3
  UO3:.9H2O(alpha)  -4.34      0.68    5.02  UO3:.9H2O
  UO3:2H2O         -4.16      0.68    4.84  UO3:2H2O
  UOCl            -39.42    -29.05   10.37  UOCl
  UOCl2           -22.25    -16.83    5.42  UOCl2
  UOCl3           -34.10    -21.52   12.58  UOCl3
  Uraninite        -1.59     -6.42   -4.83  UO2

**For a gas, SI = log10(fugacity). Fugacity = pressure * phi / 1 atm.
  For ideal gases, phi = 1.

Initial solution 3.	

-----------------------------Solution composition------------------------------

	Elements           Molality       Moles

	Cl                1.000e-01   1.000e-01  Charge balance
	N                 1.000e-01   1.000e-01
	Na                1.000e-01   1.000e-01
	U                 1.000e-07   1.000e-07

----------------------------Description of solution----------------------------

                                       pH  =   4.520    
                                       pe  =   4.000    
                        Activity of water  =   0.996
                 Ionic strength (mol/kgw)  =   9.902e-02
                       Mass of water (kg)  =   1.000e+00
                 Total alkalinity (eq/kg)  =  -3.675e-05
                         Temperature (°C)  =  25.00
                  Electrical balance (eq)  =  -2.009e-15
 Percent error, 100*(Cat-|An|)/(Cat+|An|)  =  -0.00
                               Iterations  =   9 (26 overall)
                                  Total H  = 1.110507e+02
                                  Total O  = 5.552533e+01

----------------------------Distribution of species----------------------------

                                               Log       Log       Log    mole V
   Species          Molality    Activity  Molality  Activity     Gamma   cm³/mol

   H+              3.625e-05   3.020e-05    -4.441    -4.520    -0.079      0.00
   OH-             4.131e-10   3.177e-10    -9.384    -9.498    -0.114     (0)  
   H2O             5.553e+01   9.958e-01     1.744    -0.002     0.000     (0)  
Cl(-1)        1.000e-01
   Cl-             9.902e-02   7.533e-02    -1.004    -1.123    -0.119     (0)  
   NaCl            1.018e-03   1.018e-03    -2.992    -2.992     0.000     (0)  
   HCl             5.110e-07   5.110e-07    -6.292    -6.292     0.000     (0)  
   UO2Cl+          4.525e-09   3.515e-09    -8.344    -8.454    -0.110     (0)  
   UO2Cl2          1.355e-11   1.355e-11   -10.868   -10.868     0.000     (0)  
   UCl+3           1.035e-23   1.161e-24   -22.985   -23.935    -0.950     (0)  
Cl(1)         7.175e-40
   HClO            7.175e-40   7.175e-40   -39.144   -39.144     0.000     (0)  
   ClO-            0.000e+00   0.000e+00   -42.084   -42.193    -0.110     (0)  
Cl(3)         0.000e+00
   ClO2-           0.000e+00   0.000e+00   -76.049   -76.158    -0.110     (0)  
   HClO2           0.000e+00   0.000e+00   -77.509   -77.509     0.000     (0)  
Cl(5)         0.000e+00
   ClO3-           0.000e+00   0.000e+00   -96.157   -96.271    -0.114     (0)  
   UO2ClO3+        0.000e+00   0.000e+00  -103.159  -103.269    -0.110     (0)  
Cl(7)         0.000e+00
   ClO4-           0.000e+00   0.000e+00  -120.571  -120.685    -0.114     (0)  
H(0)          1.413e-20
   H2              7.067e-21   7.237e-21   -20.151   -20.140     0.010     (0)  
N(-03)        0.000e+00
   HN3             0.000e+00   0.000e+00   -62.012   -62.012     0.000     (0)  
   N3-             0.000e+00   0.000e+00   -62.084   -62.194    -0.110     (0)  
   UO2N3+          0.000e+00   0.000e+00   -67.008   -67.118    -0.110     (0)  
   UO2(N3)2        0.000e+00   0.000e+00  -127.562  -127.562     0.000     (0)  
   UO2(N3)3-       0.000e+00   0.000e+00  -188.236  -188.346    -0.110     (0)  
   UO2(N3)4-2      0.000e+00   0.000e+00  -250.909  -251.361    -0.451     (0)  
N(-3)         7.948e-16
   NH4+            7.948e-16   5.977e-16   -15.100   -15.224    -0.124     (0)  
   NH3             1.139e-20   1.139e-20   -19.943   -19.943     0.000     (0)  
N(0)          1.000e-01
   N2              5.000e-02   5.000e-02    -1.301    -1.301     0.000     (0)  
N(3)          0.000e+00
   NO2-            0.000e+00   0.000e+00   -46.346   -46.465    -0.119     (0)  
   HNO2            0.000e+00   0.000e+00   -47.753   -47.753     0.000     (0)  
N(5)          0.000e+00
   NO3-            0.000e+00   0.000e+00   -57.072   -57.191    -0.119     (0)  
   HNO3            0.000e+00   0.000e+00   -62.993   -62.993     0.000     (0)  
   UO2NO3+         0.000e+00   0.000e+00   -64.304   -64.414    -0.110     (0)  
   UNO3+3          0.000e+00   0.000e+00   -79.320   -80.270    -0.950     (0)  
   U(NO3)2+2       0.000e+00   0.000e+00  -136.216  -136.651    -0.435     (0)  
Na            1.000e-01
   Na+             9.898e-02   7.688e-02    -1.004    -1.114    -0.110     (0)  
   NaCl            1.018e-03   1.018e-03    -2.992    -2.992     0.000     (0)  
   NaOH            4.214e-12   4.214e-12   -11.375   -11.375     0.000     (0)  
O(0)          0.000e+00
   O2              0.000e+00   0.000e+00   -51.929   -51.919     0.010     (0)  
U(3)          1.177e-37
   U+3             1.177e-37   1.319e-38   -36.929   -37.880    -0.950     (0)  
U(4)          1.008e-11
   U(OH)4          1.008e-11   1.008e-11   -10.996   -10.996     0.000     (0)  
   UOH+3           2.472e-20   2.770e-21   -19.607   -20.557    -0.950     (0)  
   U+4             1.280e-23   2.953e-25   -22.893   -24.530    -1.637     (0)  
   UCl+3           1.035e-23   1.161e-24   -22.985   -23.935    -0.950     (0)  
   UNO3+3          0.000e+00   0.000e+00   -79.320   -80.270    -0.950     (0)  
   U(NO3)2+2       0.000e+00   0.000e+00  -136.216  -136.651    -0.435     (0)  
U(5)          1.222e-10
   UO2+            1.222e-10   9.488e-11    -9.913   -10.023    -0.110     (0)  
U(6)          9.987e-08
   UO2+2           8.542e-08   3.136e-08    -7.068    -7.504    -0.435     (0)  
   UO2OH+          8.241e-09   6.401e-09    -8.084    -8.194    -0.110     (0)  
   UO2Cl+          4.525e-09   3.515e-09    -8.344    -8.454    -0.110     (0)  
   UO2(OH)2        1.652e-09   1.652e-09    -8.782    -8.782     0.000     (0)  
   UO2Cl2          1.355e-11   1.355e-11   -10.868   -10.868     0.000     (0)  
   (UO2)2(OH)2+2   6.772e-12   2.486e-12   -11.169   -11.604    -0.435     (0)  
   (UO2)2OH+3      5.679e-13   6.365e-14   -12.246   -13.196    -0.950     (0)  
   UO2(OH)3-       8.687e-14   6.747e-14   -13.061   -13.171    -0.110     (0)  
   (UO2)3(OH)5+    3.944e-16   3.063e-16   -15.404   -15.514    -0.110     (0)  
   (UO2)3(OH)4+2   1.170e-16   4.294e-17   -15.932   -16.367    -0.435     (0)  
   (UO2)4(OH)7+    5.912e-21   4.592e-21   -20.228   -20.338    -0.110     (0)  
   (UO2)3(OH)7-    1.497e-22   1.163e-22   -21.825   -21.934    -0.110     (0)  
   UO2(OH)4-2      9.799e-23   3.467e-23   -22.009   -22.460    -0.451     (0)  
   UO2NO3+         0.000e+00   0.000e+00   -64.304   -64.414    -0.110     (0)  
   UO2N3+          0.000e+00   0.000e+00   -67.008   -67.118    -0.110     (0)  
   UO2ClO3+        0.000e+00   0.000e+00  -103.159  -103.269    -0.110     (0)  
   UO2(N3)2        0.000e+00   0.000e+00  -127.562  -127.562     0.000     (0)  
   UO2(N3)3-       0.000e+00   0.000e+00  -188.236  -188.346    -0.110     (0)  
   UO2(N3)4-2      0.000e+00   0.000e+00  -250.909  -251.361    -0.451     (0)  

------------------------------Saturation indices-------------------------------

  Phase               SI** log IAP   log K(298 K,   1 atm)

  (UO2)2Cl3       -33.58    -20.90   12.68  (UO2)2Cl3
  Cl2(g)          -40.24    -37.24    2.99  Cl2
  Fix_H+           -4.52     -4.52    0.00  H+
  H2(g)           -17.04    -20.14   -3.10  H2
  H2O(g)           -1.59     -0.00    1.59  H2O
  Halite           -3.80     -2.24    1.56  NaCl
  HCl(g)          -11.94     -5.64    6.30  HCl
  Ice              -0.14     -0.00    0.14  H2O
  N2(g)             1.88     -1.30   -3.18  N2
  Na              -50.99     16.38   67.37  Na
  Na(g)           -64.47     16.38   80.86  Na
  Na2O            -60.61      6.81   67.42  Na2O
  Na2U2O7         -12.71      9.88   22.59  Na2U2O7
  Na2UO4(alpha)   -21.67      8.34   30.02  Na2UO4
  Na3UO4          -51.53      4.71   56.24  Na3UO4
  NaUO3           -10.43     -2.10    8.33  NaUO3
  NH3(g)          -21.74    -19.94    1.80  NH3
  NO(g)           -38.74    -38.00    0.74  NO
  NO2(g)          -57.08    -48.73    8.35  NO2
  O2(g)           -49.03    -51.92   -2.89  O2
  Schoepite        -3.30      1.53    4.83  UO3:2H2O
  Schoepite-dehy(.393)  -5.19      1.53    6.72  UO3:.393H2O
  Schoepite-dehy(.648)  -4.67      1.53    6.21  UO3:.648H2O
  Schoepite-dehy(.85)  -3.56      1.53    5.10  UO3:.85H2O
  Schoepite-dehy(.9)  -3.49      1.53    5.02  UO3:.9H2O
  Schoepite-dehy(1.0)  -3.57      1.53    5.10  UO3:H2O
  U              -133.35     79.41  212.77  U
  U(g)           -218.91     79.41  298.32  U
  U2Cl10(g)      -150.03    -67.43   82.60  U2Cl10
  U2Cl8(g)       -140.32    -58.04   82.27  U2Cl8
  U2O2Cl5         -59.35    -40.17   19.19  U2O2Cl5
  U5O12Cl         -14.37    -33.16  -18.79  U5O12Cl
  UCl(g)         -180.98     40.77  221.75  UCl
  UCl2(g)        -141.58     42.17  183.74  UCl2
  UCl3            -54.22    -41.25   12.97  UCl3
  UCl3(g)         -99.83    -41.25   58.58  UCl3
  UCl4            -50.94    -29.02   21.92  UCl4
  UCl4(g)         -75.37    -29.02   46.35  UCl4
  UCl5            -70.94    -33.71   37.23  UCl5
  UCl5(g)         -88.16    -33.71   54.45  UCl5
  UCl6            -89.81    -32.32   57.50  UCl6
  UCl6(g)         -95.69    -32.32   63.37  UCl6
  UH3(beta)      -146.21     53.55  199.77  UH3
  UN              -85.96    -44.26   41.70  UN
  UN1.59(alpha)   -72.61    -34.22   38.39  UN1.59
  UN1.73(alpha)   -69.76    -42.47   27.29  UN1.73
  UO(g)          -158.19     53.45  211.65  UO
  UO2(am)          -6.56     -6.45    0.11  UO2
  UO2(g)          -98.10     27.49  125.60  UO2
  UO2(NO3)2      -133.84   -121.89   11.95  UO2(NO3)2
  UO2(NO3)2:2H2O -126.80   -121.89    4.91  UO2(NO3)2:2H2O
  UO2(NO3)2:3H2O -125.58   -121.89    3.68  UO2(NO3)2:3H2O
  UO2(NO3)2:6H2O -124.19   -121.90    2.29  UO2(NO3)2:6H2O
  UO2(NO3)2:H2O  -130.39   -121.89    8.50  UO2(NO3)2:H2O
  UO2(OH)2(beta)   -3.41      1.53    4.95  UO2(OH)2
  UO2.25           -1.14     -5.98   -4.84  UO2.25
  UO2.25(beta)     -1.22     -5.98   -4.76  UO2.25
  UO2.3333(beta)   -2.50    -30.21  -27.71  (UO2.3333)2
  UO2.6667         -3.92    -47.52  -43.60  (UO2.6667)2
  UO2Cl           -10.61    -11.15   -0.53  UO2Cl
  UO2Cl2          -21.86     -9.75   12.11  UO2Cl2
  UO2Cl2(g)       -57.68     -9.75   47.93  UO2Cl2
  UO2Cl2:3H2O     -15.37     -9.76    5.61  UO2Cl2:3H2O
  UO2Cl2:H2O      -18.04     -9.75    8.28  UO2Cl2:H2O
  UO2ClOH:2H2O     -6.42     -4.11    2.30  UO2ClOH:2H2O
  UO3(alpha)       -7.11      1.53    8.64  UO3
  UO3(beta)        -6.78      1.53    8.31  UO3
  UO3(g)          -69.41      1.53   70.95  UO3
  UO3(gamma)       -6.17      1.53    7.71  UO3
  UO3:.9H2O(alpha)  -3.49      1.53    5.02  UO3:.9H2O
  UO3:2H2O         -3.31      1.53    4.84  UO3:2H2O
  UOCl            -40.33    -29.96   10.37  UOCl
  UOCl2           -23.16    -17.74    5.42  UOCl2
  UOCl3           -35.01    -22.43   12.58  UOCl3
  Uraninite        -1.62     -6.45   -4.83  UO2

**For a gas, SI = log10(fugacity). Fugacity = pressure * phi / 1 atm.
  For ideal gases, phi = 1.

Initial solution 4.	

-----------------------------Solution composition------------------------------

	Elements           Molality       Moles

	Cl                1.000e-01   1.000e-01  Charge balance
	N                 1.000e-01   1.000e-01
	Na                1.000e-01   1.000e-01
	U                 1.000e-07   1.000e-07

----------------------------Description of solution----------------------------

                                       pH  =   5.000    
                                       pe  =   4.000    
                        Activity of water  =   0.996
                 Ionic strength (mol/kgw)  =   9.899e-02
                       Mass of water (kg)  =   1.000e+00
                 Total alkalinity (eq/kg)  =  -1.213e-05
                         Temperature (°C)  =  25.00
                  Electrical balance (eq)  =  -6.412e-12
 Percent error, 100*(Cat-|An|)/(Cat+|An|)  =  -0.00
                               Iterations  =   9 (35 overall)
                                  Total H  = 1.110507e+02
                                  Total O  = 5.552533e+01

----------------------------Distribution of species----------------------------

                                               Log       Log       Log    mole V
   Species          Molality    Activity  Molality  Activity     Gamma   cm³/mol

   H+              1.200e-05   1.000e-05    -4.921    -5.000    -0.079      0.00
   OH-             1.248e-09   9.594e-10    -8.904    -9.018    -0.114     (0)  
   H2O             5.553e+01   9.958e-01     1.744    -0.002     0.000     (0)  
Cl(-1)        1.000e-01
   Cl-             9.899e-02   7.531e-02    -1.004    -1.123    -0.119     (0)  
   NaCl            1.018e-03   1.018e-03    -2.992    -2.992     0.000     (0)  
   HCl             1.692e-07   1.692e-07    -6.772    -6.772     0.000     (0)  
   UO2Cl+          3.477e-09   2.700e-09    -8.459    -8.569    -0.110     (0)  
   UO2Cl2          1.041e-11   1.041e-11   -10.983   -10.983     0.000     (0)  
   UCl+3           9.562e-26   1.072e-26   -25.019   -25.970    -0.950     (0)  
Cl(1)         2.166e-39
   HClO            2.166e-39   2.166e-39   -38.664   -38.664     0.000     (0)  
   ClO-            0.000e+00   0.000e+00   -41.124   -41.233    -0.110     (0)  
Cl(3)         0.000e+00
   ClO2-           0.000e+00   0.000e+00   -74.129   -74.238    -0.110     (0)  
   HClO2           0.000e+00   0.000e+00   -76.069   -76.069     0.000     (0)  
Cl(5)         0.000e+00
   ClO3-           0.000e+00   0.000e+00   -93.277   -93.391    -0.114     (0)  
   UO2ClO3+        0.000e+00   0.000e+00  -100.394  -100.503    -0.110     (0)  
Cl(7)         0.000e+00
   ClO4-           0.000e+00   0.000e+00  -116.731  -116.846    -0.114     (0)  
H(0)          1.550e-21
   H2              7.749e-22   7.935e-22   -21.111   -21.100     0.010     (0)  
N(-03)        0.000e+00
   N3-             0.000e+00   0.000e+00   -62.084   -62.194    -0.110     (0)  
   HN3             0.000e+00   0.000e+00   -62.492   -62.492     0.000     (0)  
   UO2N3+          0.000e+00   0.000e+00   -67.123   -67.232    -0.110     (0)  
   UO2(N3)2        0.000e+00   0.000e+00  -127.676  -127.676     0.000     (0)  
   UO2(N3)3-       0.000e+00   0.000e+00  -188.351  -188.461    -0.110     (0)  
   UO2(N3)4-2      0.000e+00   0.000e+00  -251.024  -251.475    -0.451     (0)  
N(-3)         9.556e-18
   NH4+            9.555e-18   7.186e-18   -17.020   -17.144    -0.124     (0)  
   NH3             4.135e-22   4.135e-22   -21.383   -21.383     0.000     (0)  
N(0)          1.000e-01
   N2              5.000e-02   5.000e-02    -1.301    -1.301     0.000     (0)  
N(3)          0.000e+00
   NO2-            0.000e+00   0.000e+00   -44.426   -44.545    -0.119     (0)  
   HNO2            0.000e+00   0.000e+00   -46.313   -46.313     0.000     (0)  
N(5)          0.000e+00
   NO3-            0.000e+00   0.000e+00   -54.192   -54.311    -0.119     (0)  
   HNO3            0.000e+00   0.000e+00   -60.593   -60.593     0.000     (0)  
   UO2NO3+         0.000e+00   0.000e+00   -61.539   -61.649    -0.110     (0)  
   UNO3+3          0.000e+00   0.000e+00   -78.474   -79.425    -0.950     (0)  
   U(NO3)2+2       0.000e+00   0.000e+00  -132.490  -132.925    -0.435     (0)  
Na            1.000e-01
   Na+             9.898e-02   7.688e-02    -1.004    -1.114    -0.110     (0)  
   NaCl            1.018e-03   1.018e-03    -2.992    -2.992     0.000     (0)  
   NaOH            1.273e-11   1.273e-11   -10.895   -10.895     0.000     (0)  
O(0)          0.000e+00
   O2              0.000e+00   0.000e+00   -50.009   -49.999     0.010     (0)  
U(3)          1.087e-39
   U+3             1.087e-39   1.219e-40   -38.964   -39.914    -0.950     (0)  
U(4)          7.747e-12
   U(OH)4          7.747e-12   7.747e-12   -11.111   -11.111     0.000     (0)  
   UOH+3           6.895e-22   7.729e-23   -21.161   -22.112    -0.950     (0)  
   U+4             1.182e-25   2.728e-27   -24.927   -26.564    -1.637     (0)  
   UCl+3           9.562e-26   1.072e-26   -25.019   -25.970    -0.950     (0)  
   UNO3+3          0.000e+00   0.000e+00   -78.474   -79.425    -0.950     (0)  
   U(NO3)2+2       0.000e+00   0.000e+00  -132.490  -132.925    -0.435     (0)  
U(5)          9.387e-11
   UO2+            9.387e-11   7.291e-11   -10.027   -10.137    -0.110     (0)  
U(6)          9.990e-08
   UO2+2           6.563e-08   2.410e-08    -7.183    -7.618    -0.435     (0)  
   UO2OH+          1.912e-08   1.485e-08    -7.718    -7.828    -0.110     (0)  
   UO2(OH)2        1.158e-08   1.158e-08    -7.936    -7.936     0.000     (0)  
   UO2Cl+          3.477e-09   2.700e-09    -8.459    -8.569    -0.110     (0)  
   (UO2)2(OH)2+2   3.646e-11   1.339e-11   -10.438   -10.873    -0.435     (0)  
   UO2Cl2          1.041e-11   1.041e-11   -10.983   -10.983     0.000     (0)  
   UO2(OH)3-       1.838e-12   1.428e-12   -11.736   -11.845    -0.110     (0)  
   (UO2)2OH+3      1.012e-12   1.135e-13   -11.995   -12.945    -0.950     (0)  
   (UO2)3(OH)5+    4.494e-14   3.491e-14   -13.347   -13.457    -0.110     (0)  
   (UO2)3(OH)4+2   4.413e-15   1.620e-15   -14.355   -14.790    -0.435     (0)  
   (UO2)4(OH)7+    4.721e-18   3.667e-18   -17.326   -17.436    -0.110     (0)  
   (UO2)3(OH)7-    1.556e-19   1.209e-19   -18.808   -18.918    -0.110     (0)  
   UO2(OH)4-2      6.262e-21   2.216e-21   -20.203   -20.654    -0.451     (0)  
   UO2NO3+         0.000e+00   0.000e+00   -61.539   -61.649    -0.110     (0)  
   UO2N3+          0.000e+00   0.000e+00   -67.123   -67.232    -0.110     (0)  
   UO2ClO3+        0.000e+00   0.000e+00  -100.394  -100.503    -0.110     (0)  
   UO2(N3)2        0.000e+00   0.000e+00  -127.676  -127.676     0.000     (0)  
   UO2(N3)3-       0.000e+00   0.000e+00  -188.351  -188.461    -0.110     (0)  
   UO2(N3)4-2      0.000e+00   0.000e+00  -251.024  -251.475    -0.451     (0)  

------------------------------Saturation indices-------------------------------

  Phase               SI** log IAP   log K(298 K,   1 atm)

  (UO2)2Cl3       -33.80    -21.12   12.68  (UO2)2Cl3
  Cl2(g)          -40.24    -37.24    2.99  Cl2
  Fix_H+           -5.00     -5.00    0.00  H+
  H2(g)           -18.00    -21.10   -3.10  H2
  H2O(g)           -1.59     -0.00    1.59  H2O
  Halite           -3.80     -2.24    1.56  NaCl
  HCl(g)          -12.43     -6.12    6.30  HCl
  Ice              -0.14     -0.00    0.14  H2O
  N2(g)             1.88     -1.30   -3.18  N2
  Na              -50.99     16.38   67.37  Na
  Na(g)           -64.47     16.38   80.86  Na
  Na2O            -59.65      7.77   67.42  Na2O
  Na2U2O7         -10.06     12.53   22.59  Na2U2O7
  Na2UO4(alpha)   -19.87     10.15   30.02  Na2UO4
  Na3UO4          -49.72      6.52   56.24  Na3UO4
  NaUO3            -9.58     -1.25    8.33  NaUO3
  NH3(g)          -23.18    -21.38    1.80  NH3
  NO(g)           -37.78    -37.04    0.74  NO
  NO2(g)          -55.16    -46.81    8.35  NO2
  O2(g)           -47.11    -50.00   -2.89  O2
  Schoepite        -2.46      2.38    4.83  UO3:2H2O
  Schoepite-dehy(.393)  -4.34      2.38    6.72  UO3:.393H2O
  Schoepite-dehy(.648)  -3.83      2.38    6.21  UO3:.648H2O
  Schoepite-dehy(.85)  -2.72      2.38    5.10  UO3:.85H2O
  Schoepite-dehy(.9)  -2.64      2.38    5.02  UO3:.9H2O
  Schoepite-dehy(1.0)  -2.73      2.38    5.10  UO3:H2O
  U              -135.39     77.38  212.77  U
  U(g)           -220.94     77.38  298.32  U
  U2Cl10(g)      -154.10    -71.50   82.60  U2Cl10
  U2Cl8(g)       -144.39    -62.11   82.27  U2Cl8
  U2O2Cl5         -61.50    -42.32   19.19  U2O2Cl5
  U5O12Cl         -13.02    -31.81  -18.79  U5O12Cl
  UCl(g)         -183.01     38.74  221.75  UCl
  UCl2(g)        -143.61     40.13  183.74  UCl2
  UCl3            -56.25    -43.28   12.97  UCl3
  UCl3(g)        -101.86    -43.28   58.58  UCl3
  UCl4            -52.97    -31.06   21.92  UCl4
  UCl4(g)         -77.41    -31.06   46.35  UCl4
  UCl5            -72.98    -35.75   37.23  UCl5
  UCl5(g)         -90.20    -35.75   54.45  UCl5
  UCl6            -91.85    -34.35   57.50  UCl6
  UCl6(g)         -97.72    -34.35   63.37  UCl6
  UH3(beta)      -149.69     50.08  199.77  UH3
  UN              -87.99    -46.30   41.70  UN
  UN1.59(alpha)   -74.65    -36.26   38.39  UN1.59
  UN1.73(alpha)   -71.79    -44.50   27.29  UN1.73
  UO(g)          -159.27     52.38  211.65  UO
  UO2(am)          -6.68     -6.57    0.11  UO2
  UO2(g)          -98.22     27.38  125.60  UO2
  UO2(NO3)2      -128.19   -116.24   11.95  UO2(NO3)2
  UO2(NO3)2:2H2O -121.15   -116.24    4.91  UO2(NO3)2:2H2O
  UO2(NO3)2:3H2O -119.93   -116.25    3.68  UO2(NO3)2:3H2O
  UO2(NO3)2:6H2O -118.54   -116.25    2.29  UO2(NO3)2:6H2O
  UO2(NO3)2:H2O  -124.75   -116.24    8.50  UO2(NO3)2:H2O
  UO2(OH)2(beta)   -2.57      2.38    4.95  UO2(OH)2
  UO2.25           -1.02     -5.85   -4.84  UO2.25
  UO2.25(beta)     -1.09     -5.85   -4.76  UO2.25
  UO2.3333(beta)   -2.09    -29.80  -27.71  (UO2.3333)2
  UO2.6667         -2.87    -46.47  -43.60  (UO2.6667)2
  UO2Cl           -10.73    -11.26   -0.53  UO2Cl
  UO2Cl2          -21.97     -9.86   12.11  UO2Cl2
  UO2Cl2(g)       -57.80     -9.86   47.93  UO2Cl2
  UO2Cl2:3H2O     -15.48     -9.87    5.61  UO2Cl2:3H2O
  UO2Cl2:H2O      -18.15     -9.87    8.28  UO2Cl2:H2O
  UO2ClOH:2H2O     -6.05     -3.75    2.30  UO2ClOH:2H2O
  UO3(alpha)       -6.26      2.38    8.64  UO3
  UO3(beta)        -5.93      2.38    8.31  UO3
  UO3(g)          -68.57      2.38   70.95  UO3
  UO3(gamma)       -5.33      2.38    7.71  UO3
  UO3:.9H2O(alpha)  -2.64      2.38    5.02  UO3:.9H2O
  UO3:2H2O         -2.46      2.38    4.84  UO3:2H2O
  UOCl            -41.41    -31.04   10.37  UOCl
  UOCl2           -24.23    -18.81    5.42  UOCl2
  UOCl3           -36.09    -23.50   12.58  UOCl3
  Uraninite        -1.73     -6.57   -4.83  UO2

**For a gas, SI = log10(fugacity). Fugacity = pressure * phi / 1 atm.
  For ideal gases, phi = 1.

Initial solution 5.	

-----------------------------Solution composition------------------------------

	Elements           Molality       Moles

	Cl                1.000e-01   1.000e-01  Charge balance
	N                 1.000e-01   1.000e-01
	Na                1.000e-01   1.000e-01
	U                 1.000e-07   1.000e-07

----------------------------Description of solution----------------------------

                                       pH  =   5.480    
                                       pe  =   4.000    
                        Activity of water  =   0.996
                 Ionic strength (mol/kgw)  =   9.899e-02
                       Mass of water (kg)  =   1.000e+00
                 Total alkalinity (eq/kg)  =  -3.911e-06
                         Temperature (°C)  =  25.00
                  Electrical balance (eq)  =  -2.674e-10
 Percent error, 100*(Cat-|An|)/(Cat+|An|)  =  -0.00
                               Iterations  =   9 (44 overall)
                                  Total H  = 1.110507e+02
                                  Total O  = 5.552533e+01

----------------------------Distribution of species----------------------------

                                               Log       Log       Log    mole V
   Species          Molality    Activity  Molality  Activity     Gamma   cm³/mol

   H+              3.974e-06   3.311e-06    -5.401    -5.480    -0.079      0.00
   OH-             3.768e-09   2.897e-09    -8.424    -8.538    -0.114     (0)  
   H2O             5.553e+01   9.958e-01     1.744    -0.002     0.000     (0)  
Cl(-1)        1.000e-01
   Cl-             9.899e-02   7.531e-02    -1.004    -1.123    -0.119     (0)  
   NaCl            1.018e-03   1.018e-03    -2.992    -2.992     0.000     (0)  
   HCl             5.601e-08   5.601e-08    -7.252    -7.252     0.000     (0)  
   UO2Cl+          1.492e-09   1.159e-09    -8.826    -8.936    -0.110     (0)  
   UO2Cl2          4.469e-12   4.469e-12   -11.350   -11.350     0.000     (0)  
   UCl+3           4.935e-28   5.532e-29   -27.307   -28.257    -0.950     (0)  
Cl(1)         6.542e-39
   HClO            6.542e-39   6.542e-39   -38.184   -38.184     0.000     (0)  
   ClO-            0.000e+00   0.000e+00   -40.164   -40.273    -0.110     (0)  
Cl(3)         0.000e+00
   ClO2-           0.000e+00   0.000e+00   -72.209   -72.318    -0.110     (0)  
   HClO2           0.000e+00   0.000e+00   -74.629   -74.629     0.000     (0)  
Cl(5)         0.000e+00
   ClO3-           0.000e+00   0.000e+00   -90.397   -90.511    -0.114     (0)  
   UO2ClO3+        0.000e+00   0.000e+00   -97.881   -97.991    -0.110     (0)  
Cl(7)         0.000e+00
   ClO4-           0.000e+00   0.000e+00  -112.892  -113.006    -0.114     (0)  
H(0)          1.699e-22
   H2              8.496e-23   8.701e-23   -22.071   -22.060     0.010     (0)  
N(-03)        0.000e+00
   N3-             0.000e+00   0.000e+00   -62.084   -62.194    -0.110     (0)  
   HN3             0.000e+00   0.000e+00   -62.972   -62.972     0.000     (0)  
   UO2N3+          0.000e+00   0.000e+00   -67.490   -67.600    -0.110     (0)  
   UO2(N3)2        0.000e+00   0.000e+00  -128.044  -128.044     0.000     (0)  
   UO2(N3)3-       0.000e+00   0.000e+00  -188.718  -188.828    -0.110     (0)  
   UO2(N3)4-2      0.000e+00   0.000e+00  -251.391  -251.842    -0.451     (0)  
N(-3)         1.149e-19
   NH4+            1.149e-19   8.639e-20   -18.940   -19.064    -0.124     (0)  
   NH3             1.501e-23   1.501e-23   -22.823   -22.823     0.000     (0)  
N(0)          1.000e-01
   N2              5.000e-02   5.000e-02    -1.301    -1.301     0.000     (0)  
N(3)          0.000e+00
   NO2-            0.000e+00   0.000e+00   -42.506   -42.625    -0.119     (0)  
   HNO2            0.000e+00   0.000e+00   -44.873   -44.873     0.000     (0)  
N(5)          0.000e+00
   NO3-            0.000e+00   0.000e+00   -51.312   -51.431    -0.119     (0)  
   HNO3            0.000e+00   0.000e+00   -58.193   -58.193     0.000     (0)  
   UO2NO3+         0.000e+00   0.000e+00   -59.026   -59.136    -0.110     (0)  
   UNO3+3          0.000e+00   0.000e+00   -77.882   -78.832    -0.950     (0)  
   U(NO3)2+2       0.000e+00   0.000e+00  -129.018  -129.453    -0.435     (0)  
Na            1.000e-01
   Na+             9.898e-02   7.688e-02    -1.004    -1.114    -0.110     (0)  
   NaCl            1.018e-03   1.018e-03    -2.992    -2.992     0.000     (0)  
   NaOH            3.843e-11   3.843e-11   -10.415   -10.415     0.000     (0)  
O(0)          0.000e+00
   O2              0.000e+00   0.000e+00   -48.089   -48.079     0.010     (0)  
U(3)          0.000e+00
   U+3             0.000e+00   0.000e+00   -41.251   -42.201    -0.950     (0)  
U(4)          3.326e-12
   U(OH)4          3.326e-12   3.326e-12   -11.478   -11.478     0.000     (0)  
   UOH+3           1.075e-23   1.205e-24   -22.969   -23.919    -0.950     (0)  
   U+4             6.101e-28   1.408e-29   -27.215   -28.851    -1.637     (0)  
   UCl+3           4.935e-28   5.532e-29   -27.307   -28.257    -0.950     (0)  
   UNO3+3          0.000e+00   0.000e+00   -77.882   -78.832    -0.950     (0)  
   U(NO3)2+2       0.000e+00   0.000e+00  -129.018  -129.453    -0.435     (0)  
U(5)          4.030e-11
   UO2+            4.030e-11   3.130e-11   -10.395   -10.504    -0.110     (0)  
U(6)          9.996e-08
   UO2(OH)2        4.534e-08   4.534e-08    -7.344    -7.344     0.000     (0)  
   UO2+2           2.818e-08   1.035e-08    -7.550    -7.985    -0.435     (0)  
   UO2OH+          2.479e-08   1.926e-08    -7.606    -7.715    -0.110     (0)  
   UO2Cl+          1.492e-09   1.159e-09    -8.826    -8.936    -0.110     (0)  
   (UO2)2(OH)2+2   6.129e-11   2.251e-11   -10.213   -10.648    -0.435     (0)  
   UO2(OH)3-       2.174e-11   1.688e-11   -10.663   -10.773    -0.110     (0)  
   UO2Cl2          4.469e-12   4.469e-12   -11.350   -11.350     0.000     (0)  
   (UO2)3(OH)5+    8.933e-13   6.938e-13   -12.049   -12.159    -0.110     (0)  
   (UO2)2OH+3      5.635e-13   6.317e-14   -12.249   -13.199    -0.950     (0)  
   (UO2)3(OH)4+2   2.904e-14   1.067e-14   -13.537   -13.972    -0.435     (0)  
   (UO2)4(OH)7+    3.674e-16   2.854e-16   -15.435   -15.545    -0.110     (0)  
   (UO2)3(OH)7-    2.821e-17   2.191e-17   -16.550   -16.659    -0.110     (0)  
   UO2(OH)4-2      2.236e-19   7.912e-20   -18.651   -19.102    -0.451     (0)  
   UO2NO3+         0.000e+00   0.000e+00   -59.026   -59.136    -0.110     (0)  
   UO2N3+          0.000e+00   0.000e+00   -67.490   -67.600    -0.110     (0)  
   UO2ClO3+        0.000e+00   0.000e+00   -97.881   -97.991    -0.110     (0)  
   UO2(N3)2        0.000e+00   0.000e+00  -128.044  -128.044     0.000     (0)  
   UO2(N3)3-       0.000e+00   0.000e+00  -188.718  -188.828    -0.110     (0)  
   UO2(N3)4-2      0.000e+00   0.000e+00  -251.391  -251.842    -0.451     (0)  

------------------------------Saturation indices-------------------------------

  Phase               SI** log IAP   log K(298 K,   1 atm)

  (UO2)2Cl3       -34.54    -21.86   12.68  (UO2)2Cl3
  Cl2(g)          -40.24    -37.24    2.99  Cl2
  Fix_H+           -5.48     -5.48    0.00  H+
  H2(g)           -18.96    -22.06   -3.10  H2
  H2O(g)           -1.59     -0.00    1.59  H2O
  Halite           -3.80     -2.24    1.56  NaCl
  HCl(g)          -12.91     -6.60    6.30  HCl
  Ice              -0.14     -0.00    0.14  H2O
  N2(g)             1.88     -1.30   -3.18  N2
  Na              -50.99     16.38   67.37  Na
  Na(g)           -64.47     16.38   80.86  Na
  Na2O            -58.69      8.73   67.42  Na2O
  Na2U2O7          -7.91     14.68   22.59  Na2U2O7
  Na2UO4(alpha)   -18.31     11.70   30.02  Na2UO4
  Na3UO4          -48.17      8.07   56.24  Na3UO4
  NaUO3            -8.99     -0.66    8.33  NaUO3
  NH3(g)          -24.62    -22.82    1.80  NH3
  NO(g)           -36.82    -36.08    0.74  NO
  NO2(g)          -53.24    -44.89    8.35  NO2
  O2(g)           -45.19    -48.08   -2.89  O2
  Schoepite        -1.87      2.97    4.83  UO3:2H2O
  Schoepite-dehy(.393)  -3.75      2.97    6.72  UO3:.393H2O
  Schoepite-dehy(.648)  -3.24      2.97    6.21  UO3:.648H2O
  Schoepite-dehy(.85)  -2.13      2.97    5.10  UO3:.85H2O
  Schoepite-dehy(.9)  -2.05      2.97    5.02  UO3:.9H2O
  Schoepite-dehy(1.0)  -2.13      2.97    5.10  UO3:H2O
  U              -137.67     75.09  212.77  U
  U(g)           -223.23     75.09  298.32  U
  U2Cl10(g)      -158.67    -76.07   82.60  U2Cl10
  U2Cl8(g)       -148.96    -66.69   82.27  U2Cl8
  U2O2Cl5         -64.16    -44.97   19.19  U2O2Cl5
  U5O12Cl         -12.94    -31.73  -18.79  U5O12Cl
  UCl(g)         -185.30     36.45  221.75  UCl
  UCl2(g)        -145.90     37.85  183.74  UCl2
  UCl3            -58.54    -45.57   12.97  UCl3
  UCl3(g)        -104.15    -45.57   58.58  UCl3
  UCl4            -55.26    -33.34   21.92  UCl4
  UCl4(g)         -79.69    -33.34   46.35  UCl4
  UCl5            -75.27    -38.04   37.23  UCl5
  UCl5(g)         -92.48    -38.04   54.45  UCl5
  UCl6            -94.14    -36.64   57.50  UCl6
  UCl6(g)        -100.01    -36.64   63.37  UCl6
  UH3(beta)      -153.42     46.35  199.77  UH3
  UN              -90.28    -48.58   41.70  UN
  UN1.59(alpha)   -76.94    -38.55   38.39  UN1.59
  UN1.73(alpha)   -74.08    -46.79   27.29  UN1.73
  UO(g)          -160.60     51.05  211.65  UO
  UO2(am)          -7.04     -6.94    0.11  UO2
  UO2(g)          -98.58     27.01  125.60  UO2
  UO2(NO3)2      -122.80   -110.85   11.95  UO2(NO3)2
  UO2(NO3)2:2H2O -115.76   -110.85    4.91  UO2(NO3)2:2H2O
  UO2(NO3)2:3H2O -114.54   -110.85    3.68  UO2(NO3)2:3H2O
  UO2(NO3)2:6H2O -113.15   -110.86    2.29  UO2(NO3)2:6H2O
  UO2(NO3)2:H2O  -119.35   -110.85    8.50  UO2(NO3)2:H2O
  UO2(OH)2(beta)   -1.98      2.97    4.95  UO2(OH)2
  UO2.25           -1.14     -5.98   -4.84  UO2.25
  UO2.25(beta)     -1.22     -5.98   -4.76  UO2.25
  UO2.3333(beta)   -2.18    -29.89  -27.71  (UO2.3333)2
  UO2.6667         -2.32    -45.92  -43.60  (UO2.6667)2
  UO2Cl           -11.09    -11.63   -0.53  UO2Cl
  UO2Cl2          -22.34    -10.23   12.11  UO2Cl2
  UO2Cl2(g)       -58.17    -10.23   47.93  UO2Cl2
  UO2Cl2:3H2O     -15.85    -10.24    5.61  UO2Cl2:3H2O
  UO2Cl2:H2O      -18.52    -10.23    8.28  UO2Cl2:H2O
  UO2ClOH:2H2O     -5.94     -3.63    2.30  UO2ClOH:2H2O
  UO3(alpha)       -5.67      2.97    8.64  UO3
  UO3(beta)        -5.34      2.97    8.31  UO3
  UO3(g)          -67.98      2.97   70.95  UO3
  UO3(gamma)       -4.74      2.97    7.71  UO3
  UO3:.9H2O(alpha)  -2.05      2.97    5.02  UO3:.9H2O
  UO3:2H2O         -1.87      2.97    4.84  UO3:2H2O
  UOCl            -42.74    -32.37   10.37  UOCl
  UOCl2           -25.56    -20.14    5.42  UOCl2
  UOCl3           -37.42    -24.83   12.58  UOCl3
  Uraninite        -2.10     -6.94   -4.83  UO2

**For a gas, SI = log10(fugacity). Fugacity = pressure * phi / 1 atm.
  For ideal gases, phi = 1.

Initial solution 6.	

-----------------------------Solution composition------------------------------

	Elements           Molality       Moles

	Cl                1.000e-01   1.000e-01  Charge balance
	N                 1.000e-01   1.000e-01
	Na                1.000e-01   1.000e-01
	U                 1.000e-07   1.000e-07

----------------------------Description of solution----------------------------

                                       pH  =   5.940    
                                       pe  =   4.000    
                        Activity of water  =   0.996
                 Ionic strength (mol/kgw)  =   9.898e-02
                       Mass of water (kg)  =   1.000e+00
                 Total alkalinity (eq/kg)  =  -1.214e-06
                         Temperature (°C)  =  25.00
                  Electrical balance (eq)  =  -9.721e-10
 Percent error, 100*(Cat-|An|)/(Cat+|An|)  =  -0.00
                               Iterations  =   9 (53 overall)
                                  Total H  = 1.110507e+02
                                  Total O  = 5.552533e+01

----------------------------Distribution of species----------------------------

                                               Log       Log       Log    mole V
   Species          Molality    Activity  Molality  Activity     Gamma   cm³/mol

   H+              1.378e-06   1.148e-06    -5.861    -5.940    -0.079      0.00
   OH-             1.087e-08   8.356e-09    -7.964    -8.078    -0.114     (0)  
   H2O             5.553e+01   9.958e-01     1.744    -0.002     0.000     (0)  
Cl(-1)        1.000e-01
   Cl-             9.898e-02   7.531e-02    -1.004    -1.123    -0.119     (0)  
   NaCl            1.018e-03   1.018e-03    -2.992    -2.992     0.000     (0)  
   HCl             1.942e-08   1.942e-08    -7.712    -7.712     0.000     (0)  
   UO2Cl+          3.115e-10   2.419e-10    -9.507    -9.616    -0.110     (0)  
   UO2Cl2          9.327e-13   9.327e-13   -12.030   -12.030     0.000     (0)  
   UCl+3           1.489e-30   1.669e-31   -29.827   -30.778    -0.950     (0)  
Cl(1)         1.944e-38
   HClO            1.887e-38   1.887e-38   -37.724   -37.724     0.000     (0)  
   ClO-            5.705e-40   4.431e-40   -39.244   -39.353    -0.110     (0)  
Cl(3)         0.000e+00
   ClO2-           0.000e+00   0.000e+00   -70.369   -70.478    -0.110     (0)  
   HClO2           0.000e+00   0.000e+00   -73.249   -73.249     0.000     (0)  
Cl(5)         0.000e+00
   ClO3-           0.000e+00   0.000e+00   -87.637   -87.751    -0.114     (0)  
   UO2ClO3+        0.000e+00   0.000e+00   -95.801   -95.911    -0.110     (0)  
Cl(7)         0.000e+00
   ClO4-           0.000e+00   0.000e+00  -109.212  -109.326    -0.114     (0)  
H(0)          2.043e-23
   H2              1.021e-23   1.046e-23   -22.991   -22.980     0.010     (0)  
N(-03)        0.000e+00
   N3-             0.000e+00   0.000e+00   -62.084   -62.194    -0.110     (0)  
   HN3             0.000e+00   0.000e+00   -63.432   -63.432     0.000     (0)  
   UO2N3+          0.000e+00   0.000e+00   -68.170   -68.280    -0.110     (0)  
   UO2(N3)2        0.000e+00   0.000e+00  -128.724  -128.724     0.000     (0)  
   UO2(N3)3-       0.000e+00   0.000e+00  -189.399  -189.508    -0.110     (0)  
   UO2(N3)4-2      0.000e+00   0.000e+00  -252.071  -252.523    -0.451     (0)  
N(-3)         1.661e-21
   NH4+            1.661e-21   1.249e-21   -20.780   -20.904    -0.124     (0)  
   NH3             6.259e-25   6.259e-25   -24.203   -24.203     0.000     (0)  
N(0)          1.000e-01
   N2              5.000e-02   5.000e-02    -1.301    -1.301     0.000     (0)  
N(3)          0.000e+00
   NO2-            0.000e+00   0.000e+00   -40.666   -40.785    -0.119     (0)  
   HNO2            0.000e+00   0.000e+00   -43.493   -43.493     0.000     (0)  
N(5)          0.000e+00
   NO3-            0.000e+00   0.000e+00   -48.552   -48.671    -0.119     (0)  
   HNO3            0.000e+00   0.000e+00   -55.893   -55.893     0.000     (0)  
   UO2NO3+         0.000e+00   0.000e+00   -56.947   -57.056    -0.110     (0)  
   UNO3+3          0.000e+00   0.000e+00   -77.642   -78.592    -0.950     (0)  
   U(NO3)2+2       0.000e+00   0.000e+00  -126.018  -126.453    -0.435     (0)  
Na            1.000e-01
   Na+             9.898e-02   7.688e-02    -1.004    -1.114    -0.110     (0)  
   NaCl            1.018e-03   1.018e-03    -2.992    -2.992     0.000     (0)  
   NaOH            1.108e-10   1.108e-10    -9.955    -9.955     0.000     (0)  
O(0)          0.000e+00
   O2              0.000e+00   0.000e+00   -46.249   -46.239     0.010     (0)  
U(3)          0.000e+00
   U+3             0.000e+00   0.000e+00   -43.771   -44.722    -0.950     (0)  
U(4)          6.941e-13
   U(OH)4          6.941e-13   6.941e-13   -12.159   -12.159     0.000     (0)  
   UOH+3           9.350e-26   1.048e-26   -25.029   -25.980    -0.950     (0)  
   U+4             1.841e-30   4.248e-32   -29.735   -31.372    -1.637     (0)  
   UCl+3           1.489e-30   1.669e-31   -29.827   -30.778    -0.950     (0)  
   UNO3+3          0.000e+00   0.000e+00   -77.642   -78.592    -0.950     (0)  
   U(NO3)2+2       0.000e+00   0.000e+00  -126.018  -126.453    -0.435     (0)  
U(5)          8.411e-12
   UO2+            8.411e-12   6.533e-12   -11.075   -11.185    -0.110     (0)  
U(6)          9.999e-08
   UO2(OH)2        7.871e-08   7.871e-08    -7.104    -7.104     0.000     (0)  
   UO2OH+          1.492e-08   1.159e-08    -7.826    -7.936    -0.110     (0)  
   UO2+2           5.881e-09   2.159e-09    -8.231    -8.666    -0.435     (0)  
   UO2Cl+          3.115e-10   2.419e-10    -9.507    -9.616    -0.110     (0)  
   UO2(OH)3-       1.088e-10   8.453e-11    -9.963   -10.073    -0.110     (0)  
   (UO2)2(OH)2+2   2.221e-11   8.155e-12   -10.653   -11.089    -0.435     (0)  
   (UO2)3(OH)5+    1.621e-12   1.259e-12   -11.790   -11.900    -0.110     (0)  
   UO2Cl2          9.327e-13   9.327e-13   -12.030   -12.030     0.000     (0)  
   (UO2)2OH+3      7.079e-14   7.937e-15   -13.150   -14.100    -0.950     (0)  
   (UO2)3(OH)4+2   1.827e-14   6.709e-15   -13.738   -14.173    -0.435     (0)  
   (UO2)4(OH)7+    1.157e-15   8.988e-16   -14.937   -15.046    -0.110     (0)  
   (UO2)3(OH)7-    4.257e-16   3.306e-16   -15.371   -15.481    -0.110     (0)  
   UO2(OH)4-2      3.229e-18   1.143e-18   -17.491   -17.942    -0.451     (0)  
   UO2NO3+         0.000e+00   0.000e+00   -56.947   -57.056    -0.110     (0)  
   UO2N3+          0.000e+00   0.000e+00   -68.170   -68.280    -0.110     (0)  
   UO2ClO3+        0.000e+00   0.000e+00   -95.801   -95.911    -0.110     (0)  
   UO2(N3)2        0.000e+00   0.000e+00  -128.724  -128.724     0.000     (0)  
   UO2(N3)3-       0.000e+00   0.000e+00  -189.399  -189.508    -0.110     (0)  
   UO2(N3)4-2      0.000e+00   0.000e+00  -252.071  -252.523    -0.451     (0)  

------------------------------Saturation indices-------------------------------

  Phase               SI** log IAP   log K(298 K,   1 atm)

  (UO2)2Cl3       -35.90    -23.22   12.68  (UO2)2Cl3
  Cl2(g)          -40.24    -37.24    2.99  Cl2
  Fix_H+           -5.94     -5.94    0.00  H+
  H2(g)           -19.88    -22.98   -3.10  H2
  H2O(g)           -1.59     -0.00    1.59  H2O
  Halite           -3.80     -2.24    1.56  NaCl
  HCl(g)          -13.37     -7.06    6.30  HCl
  Ice              -0.14     -0.00    0.14  H2O
  N2(g)             1.88     -1.30   -3.18  N2
  Na              -50.99     16.38   67.37  Na
  Na(g)           -64.47     16.38   80.86  Na
  Na2O            -57.77      9.65   67.42  Na2O
  Na2U2O7          -6.51     16.07   22.59  Na2U2O7
  Na2UO4(alpha)   -17.15     12.86   30.02  Na2UO4
  Na3UO4          -47.01      9.23   56.24  Na3UO4
  NaUO3            -8.75     -0.42    8.33  NaUO3
  NH3(g)          -26.00    -24.20    1.80  NH3
  NO(g)           -35.90    -35.16    0.74  NO
  NO2(g)          -51.40    -43.05    8.35  NO2
  O2(g)           -43.35    -46.24   -2.89  O2
  Schoepite        -1.63      3.21    4.83  UO3:2H2O
  Schoepite-dehy(.393)  -3.51      3.21    6.72  UO3:.393H2O
  Schoepite-dehy(.648)  -3.00      3.21    6.21  UO3:.648H2O
  Schoepite-dehy(.85)  -1.89      3.21    5.10  UO3:.85H2O
  Schoepite-dehy(.9)  -1.81      3.21    5.02  UO3:.9H2O
  Schoepite-dehy(1.0)  -1.89      3.21    5.10  UO3:H2O
  U              -140.19     72.57  212.77  U
  U(g)           -225.75     72.57  298.32  U
  U2Cl10(g)      -163.71    -81.11   82.60  U2Cl10
  U2Cl8(g)       -154.00    -71.73   82.27  U2Cl8
  U2O2Cl5         -67.36    -48.17   19.19  U2O2Cl5
  U5O12Cl         -14.50    -33.29  -18.79  U5O12Cl
  UCl(g)         -187.82     33.93  221.75  UCl
  UCl2(g)        -148.42     35.33  183.74  UCl2
  UCl3            -61.06    -48.09   12.97  UCl3
  UCl3(g)        -106.67    -48.09   58.58  UCl3
  UCl4            -57.78    -35.86   21.92  UCl4
  UCl4(g)         -82.21    -35.86   46.35  UCl4
  UCl5            -77.79    -40.56   37.23  UCl5
  UCl5(g)         -95.01    -40.56   54.45  UCl5
  UCl6            -96.66    -39.16   57.50  UCl6
  UCl6(g)        -102.53    -39.16   63.37  UCl6
  UH3(beta)      -157.32     42.45  199.77  UH3
  UN              -92.80    -51.11   41.70  UN
  UN1.59(alpha)   -79.46    -41.07   38.39  UN1.59
  UN1.73(alpha)   -76.60    -49.31   27.29  UN1.73
  UO(g)          -162.20     49.45  211.65  UO
  UO2(am)          -7.72     -7.62    0.11  UO2
  UO2(g)          -99.26     26.33  125.60  UO2
  UO2(NO3)2      -117.96   -106.01   11.95  UO2(NO3)2
  UO2(NO3)2:2H2O -110.92   -106.01    4.91  UO2(NO3)2:2H2O
  UO2(NO3)2:3H2O -109.70   -106.01    3.68  UO2(NO3)2:3H2O
  UO2(NO3)2:6H2O -108.31   -106.02    2.29  UO2(NO3)2:6H2O
  UO2(NO3)2:H2O  -114.51   -106.01    8.50  UO2(NO3)2:H2O
  UO2(OH)2(beta)   -1.74      3.21    4.95  UO2(OH)2
  UO2.25           -1.59     -6.43   -4.84  UO2.25
  UO2.25(beta)     -1.67     -6.43   -4.76  UO2.25
  UO2.3333(beta)   -2.93    -30.64  -27.71  (UO2.3333)2
  UO2.6667         -2.46    -46.06  -43.60  (UO2.6667)2
  UO2Cl           -11.77    -12.31   -0.53  UO2Cl
  UO2Cl2          -23.02    -10.91   12.11  UO2Cl2
  UO2Cl2(g)       -58.85    -10.91   47.93  UO2Cl2
  UO2Cl2:3H2O     -16.53    -10.92    5.61  UO2Cl2:3H2O
  UO2Cl2:H2O      -19.20    -10.91    8.28  UO2Cl2:H2O
  UO2ClOH:2H2O     -6.16     -3.85    2.30  UO2ClOH:2H2O
  UO3(alpha)       -5.43      3.21    8.64  UO3
  UO3(beta)        -5.10      3.21    8.31  UO3
  UO3(g)          -67.74      3.21   70.95  UO3
  UO3(gamma)       -4.50      3.21    7.71  UO3
  UO3:.9H2O(alpha)  -1.81      3.21    5.02  UO3:.9H2O
  UO3:2H2O         -1.63      3.21    4.84  UO3:2H2O
  UOCl            -44.34    -33.97   10.37  UOCl
  UOCl2           -27.16    -21.74    5.42  UOCl2
  UOCl3           -39.02    -26.43   12.58  UOCl3
  Uraninite        -2.78     -7.62   -4.83  UO2

**For a gas, SI = log10(fugacity). Fugacity = pressure * phi / 1 atm.
  For ideal gases, phi = 1.

-----------------------------------------
Beginning of batch-reaction calculations.
-----------------------------------------

Reaction step 1.

Using solution 1.	
Using surface 1.	
Using pure phase assemblage 1.	

-------------------------------Phase assemblage--------------------------------

                                                      Moles in assemblage
Phase               SI  log IAP  log K(T, P)   Initial       Final       Delta

CO2(g)           -3.44   -11.27     -7.83    1.000e+01   1.000e+01  -1.196e-05
Fix_H+           -3.56    -3.56      0.00
	 NaOH               is reactant       1.000e-01   2.552e-04  -9.974e-02
O2(g)            -0.70    -3.59     -2.89    1.000e+01   9.875e+00  -1.252e-01

------------------------------Surface composition------------------------------

Hfo           
	  2.460e-04  Surface charge, eq
Hfo_s         
	  5.964e-06  moles
	                                   Mole                     Log
	Species               Moles    Fraction    Molality    Molality

	Hfo_sOH2+         5.962e-06       1.000   5.957e-06      -5.225
	Hfo_sOH           1.110e-09       0.000   1.109e-09      -8.955
	Hfo_sOUO2+        6.529e-10       0.000   6.523e-10      -9.186
	Hfo_sO-           4.736e-15       0.000   4.732e-15     -14.325

Hfo           
	  2.460e-04  Surface charge, eq
Hfo_w         
	  2.401e-04  moles
	                                   Mole                     Log
	Species               Moles    Fraction    Molality    Molality

	Hfo_wOH2+         2.400e-04       1.000   2.398e-04      -3.620
	Hfo_wOH           4.469e-08       0.000   4.465e-08      -7.350
	Hfo_wOUO2+        2.973e-09       0.000   2.970e-09      -8.527
	Hfo_wO-           1.906e-13       0.000   1.905e-13     -12.720
	Hfo_wOUO2CO3-     9.837e-18       0.000   9.828e-18     -17.008
	Hfo_wOUO2(CO3)2-3   7.536e-26       0.000   7.529e-26     -25.123

-----------------------------Solution composition------------------------------

	Elements           Molality       Moles

	C                 1.195e-05   1.196e-05
	Cl                1.002e-01   1.003e-01
	N                 9.991e-02   1.000e-01
	Na                1.996e-01   1.997e-01
	U                 9.629e-08   9.637e-08

----------------------------Description of solution----------------------------

                                       pH  =   3.560      Charge balance
                                       pe  =  17.042      Adjusted to redox equilibrium
                        Activity of water  =   0.993
                 Ionic strength (mol/kgw)  =   1.983e-01
                       Mass of water (kg)  =   1.001e+00
                 Total alkalinity (eq/kg)  =  -3.442e-04
                       Total CO2 (mol/kg)  =   1.195e-05
                         Temperature (°C)  =  25.00
                  Electrical balance (eq)  =  -2.460e-04
 Percent error, 100*(Cat-|An|)/(Cat+|An|)  =  -0.06
                               Iterations  =  17
                                  Total H  = 1.111505e+02
                                  Total O  = 5.587558e+01

----------------------------Distribution of species----------------------------

                                               Log       Log       Log    mole V
   Species          Molality    Activity  Molality  Activity     Gamma   cm³/mol

   H+              3.389e-04   2.754e-04    -3.470    -3.560    -0.090      0.00
   OH-             4.823e-11   3.474e-11   -10.317   -10.459    -0.142     (0)  
   H2O             5.553e+01   9.932e-01     1.744    -0.003     0.000     (0)  
C(-2)         0.000e+00
   C2H4            0.000e+00   0.000e+00  -266.186  -266.186     0.000     (0)  
C(-3)         0.000e+00
   C2H6            0.000e+00   0.000e+00  -260.058  -260.058     0.000     (0)  
C(-4)         0.000e+00
   CH4             0.000e+00   0.000e+00  -148.183  -148.183     0.000     (0)  
C(2)          0.000e+00
   CO              0.000e+00   0.000e+00   -51.147   -51.147     0.000     (0)  
C(4)          1.195e-05
   CO2             1.192e-05   1.250e-05    -4.924    -4.903     0.020     (0)  
   HCO3-           2.654e-08   1.943e-08    -7.576    -7.712    -0.135     (0)  
   NaHCO3          4.023e-09   4.023e-09    -8.395    -8.395     0.000     (0)  
   UO2CO3          3.945e-13   3.945e-13   -12.404   -12.404     0.000     (0)  
   CO3-2           1.087e-14   3.129e-15   -13.964   -14.505    -0.541     (0)  
   NaCO3-          2.165e-15   1.585e-15   -14.664   -14.800    -0.135     (0)  
   UO2(CO3)2-2     8.748e-20   2.375e-20   -19.058   -19.624    -0.566     (0)  
   (UO2)2CO3(OH)3-   1.707e-20   1.250e-20   -19.768   -19.903    -0.135     (0)  
   (UO2)3(OH)5CO2+   1.710e-26   1.252e-26   -25.767   -25.903    -0.135     (0)  
   (UO2)3O(OH)2(HCO3)+   1.388e-26   1.016e-26   -25.858   -25.993    -0.135     (0)  
   UO2(CO3)3-4     6.513e-28   3.343e-30   -27.186   -29.476    -2.290     (0)  
   (UO2)3(CO3)6-6   0.000e+00   0.000e+00   -50.558   -55.720    -5.162     (0)  
   UO2(CO3)3-5     0.000e+00   0.000e+00   -55.658   -59.240    -3.582     (0)  
   U(CO3)4-4       0.000e+00   0.000e+00   -67.439   -69.728    -2.290     (0)  
   U(CO3)5-6       0.000e+00   0.000e+00   -80.154   -85.316    -5.162     (0)  
   (UO2)11(CO3)6(OH)12-2   0.000e+00   0.000e+00   -90.992   -91.559    -0.566     (0)  
Cl(-1)        1.002e-01
   Cl-             9.847e-02   6.970e-02    -1.007    -1.157    -0.150     (0)  
   NaCl            1.774e-03   1.774e-03    -2.751    -2.751     0.000     (0)  
   HCl             4.311e-06   4.311e-06    -5.365    -5.365     0.000     (0)  
   UO2Cl+          3.559e-09   2.605e-09    -8.449    -8.584    -0.135     (0)  
   UO2Cl2          9.295e-12   9.295e-12   -11.032   -11.032     0.000     (0)  
   UCl+3           0.000e+00   0.000e+00   -45.133   -46.308    -1.175     (0)  
Cl(1)         8.827e-15
   HClO            8.826e-15   8.826e-15   -14.054   -14.054     0.000     (0)  
   ClO-            1.180e-18   8.641e-19   -17.928   -18.063    -0.135     (0)  
Cl(3)         2.422e-28
   ClO2-           1.866e-28   1.366e-28   -27.729   -27.865    -0.135     (0)  
   HClO2           5.561e-29   5.561e-29   -28.255   -28.255     0.000     (0)  
Cl(5)         2.132e-24
   ClO3-           2.132e-24   1.536e-24   -23.671   -23.814    -0.142     (0)  
   UO2ClO3+        1.689e-31   1.237e-31   -30.772   -30.908    -0.135     (0)  
Cl(7)         1.197e-24
   ClO4-           1.197e-24   8.621e-25   -23.922   -24.064    -0.142     (0)  
H(0)          0.000e+00
   H2              0.000e+00   0.000e+00   -44.326   -44.305     0.020     (0)  
N(-03)        0.000e+00
   HN3             0.000e+00   0.000e+00   -84.318   -84.318     0.000     (0)  
   N3-             0.000e+00   0.000e+00   -85.325   -85.461    -0.135     (0)  
   UO2N3+          0.000e+00   0.000e+00   -90.345   -90.481    -0.135     (0)  
   UO2(N3)2        0.000e+00   0.000e+00  -174.191  -174.191     0.000     (0)  
   UO2(N3)3-       0.000e+00   0.000e+00  -258.107  -258.242    -0.135     (0)  
   UO2(N3)4-2      0.000e+00   0.000e+00  -343.957  -344.523    -0.566     (0)  
N(-3)         0.000e+00
   NH4+            0.000e+00   0.000e+00   -53.760   -53.919    -0.159     (0)  
   NH3             0.000e+00   0.000e+00   -59.599   -59.599     0.000     (0)  
N(0)          1.527e-08
   N2              7.637e-09   7.637e-09    -8.117    -8.117     0.000     (0)  
N(3)          4.864e-15
   NO2-            3.650e-15   2.583e-15   -14.438   -14.588    -0.150     (0)  
   HNO2            1.214e-15   1.214e-15   -14.916   -14.916     0.000     (0)  
N(5)          9.991e-02
   NO3-            9.991e-02   7.072e-02    -1.000    -1.150    -0.150     (0)  
   HNO3            1.019e-06   1.019e-06    -5.992    -5.992     0.000     (0)  
   UO2NO3+         4.630e-09   3.389e-09    -8.334    -8.470    -0.135     (0)  
   UNO3+3          0.000e+00   0.000e+00   -45.393   -46.569    -1.175     (0)  
   U(NO3)2+2       0.000e+00   0.000e+00   -46.368   -46.909    -0.541     (0)  
Na            1.996e-01
   Na+             1.978e-01   1.448e-01    -0.704    -0.839    -0.135     (0)  
   NaCl            1.774e-03   1.774e-03    -2.751    -2.751     0.000     (0)  
   NaHCO3          4.023e-09   4.023e-09    -8.395    -8.395     0.000     (0)  
   NaOH            8.679e-13   8.679e-13   -12.062   -12.062     0.000     (0)  
   NaCO3-          2.165e-15   1.585e-15   -14.664   -14.800    -0.135     (0)  
O(0)          4.889e-04
   O2              2.444e-04   2.562e-04    -3.612    -3.591     0.020     (0)  
U(3)          0.000e+00
   U+3             0.000e+00   0.000e+00   -72.086   -73.261    -1.175     (0)  
U(4)          6.610e-38
   U(OH)4          6.610e-38   6.610e-38   -37.180   -37.180     0.000     (0)  
   UOH+3           0.000e+00   0.000e+00   -42.682   -43.857    -1.175     (0)  
   U+4             0.000e+00   0.000e+00   -44.859   -46.869    -2.010     (0)  
   UCl+3           0.000e+00   0.000e+00   -45.133   -46.308    -1.175     (0)  
   UNO3+3          0.000e+00   0.000e+00   -45.393   -46.569    -1.175     (0)  
   U(NO3)2+2       0.000e+00   0.000e+00   -46.368   -46.909    -0.541     (0)  
   U(CO3)4-4       0.000e+00   0.000e+00   -67.439   -69.728    -2.290     (0)  
   U(CO3)5-6       0.000e+00   0.000e+00   -80.154   -85.316    -5.162     (0)  
U(5)          9.418e-24
   UO2+            9.418e-24   6.894e-24   -23.026   -23.162    -0.135     (0)  
   UO2(CO3)3-5     0.000e+00   0.000e+00   -55.658   -59.240    -3.582     (0)  
U(6)          9.629e-08
   UO2+2           8.731e-08   2.512e-08    -7.059    -7.600    -0.541     (0)  
   UO2NO3+         4.630e-09   3.389e-09    -8.334    -8.470    -0.135     (0)  
   UO2Cl+          3.559e-09   2.605e-09    -8.449    -8.584    -0.135     (0)  
   UO2OH+          7.661e-10   5.608e-10    -9.116    -9.251    -0.135     (0)  
   UO2(OH)2        1.583e-11   1.583e-11   -10.800   -10.800     0.000     (0)  
   UO2Cl2          9.295e-12   9.295e-12   -11.032   -11.032     0.000     (0)  
   UO2CO3          3.945e-13   3.945e-13   -12.404   -12.404     0.000     (0)  
   (UO2)2OH+3      6.686e-14   4.467e-15   -13.175   -14.350    -1.175     (0)  
   (UO2)2(OH)2+2   6.632e-14   1.909e-14   -13.178   -13.719    -0.541     (0)  
   UO2(OH)3-       9.659e-17   7.070e-17   -16.015   -16.151    -0.135     (0)  
   UO2(CO3)2-2     8.748e-20   2.375e-20   -19.058   -19.624    -0.566     (0)  
   (UO2)2CO3(OH)3-   1.707e-20   1.250e-20   -19.768   -19.903    -0.135     (0)  
   (UO2)3(OH)4+2   1.098e-20   3.159e-21   -19.960   -20.501    -0.541     (0)  
   (UO2)3(OH)5+    3.366e-21   2.464e-21   -20.473   -20.608    -0.135     (0)  
   (UO2)3(OH)5CO2+   1.710e-26   1.252e-26   -25.767   -25.903    -0.135     (0)  
   UO2(OH)4-2      1.464e-26   3.974e-27   -25.835   -26.401    -0.566     (0)  
   (UO2)3O(OH)2(HCO3)+   1.388e-26   1.016e-26   -25.858   -25.993    -0.135     (0)  
   UO2(CO3)3-4     6.513e-28   3.343e-30   -27.186   -29.476    -2.290     (0)  
   (UO2)4(OH)7+    4.835e-28   3.539e-28   -27.316   -27.451    -0.135     (0)  
   (UO2)3(OH)7-    1.529e-29   1.119e-29   -28.816   -28.951    -0.135     (0)  
   UO2ClO3+        1.689e-31   1.237e-31   -30.772   -30.908    -0.135     (0)  
   (UO2)3(CO3)6-6   0.000e+00   0.000e+00   -50.558   -55.720    -5.162     (0)  
   UO2N3+          0.000e+00   0.000e+00   -90.345   -90.481    -0.135     (0)  
   (UO2)11(CO3)6(OH)12-2   0.000e+00   0.000e+00   -90.992   -91.559    -0.566     (0)  
   UO2(N3)2        0.000e+00   0.000e+00  -174.191  -174.191     0.000     (0)  
   UO2(N3)3-       0.000e+00   0.000e+00  -258.107  -258.242    -0.135     (0)  
   UO2(N3)4-2      0.000e+00   0.000e+00  -343.957  -344.523    -0.566     (0)  

------------------------------Saturation indices-------------------------------

[...]
  U(CO3)2         -61.25    -53.73    7.52  U(CO3)2
  U(g)           -291.97      6.35  298.32  U
  U2C3           -595.14   -139.93  455.21  U2C3
  U2Cl10(g)      -185.29   -102.69   82.60  U2Cl10
  U2Cl8(g)       -197.75   -115.48   82.27  U2Cl8
  U2O2Cl5        -101.72    -82.54   19.19  U2O2Cl5
  U5O12Cl         -78.65    -97.44  -18.79  U5O12Cl
  UC             -260.92    -66.13  194.79  UC
  UC1.94(alpha)  -330.46    -73.34  257.12  UC1.94
  UCl(g)         -242.96    -21.21  221.75  UCl
  UCl2(g)        -192.47     -8.72  183.74  UCl2
  UCl3            -94.02    -81.05   12.97  UCl3
  UCl3(g)        -139.63    -81.05   58.58  UCl3
  UCl4            -79.65    -57.74   21.92  UCl4
  UCl4(g)        -104.09    -57.74   46.35  UCl4
  UCl5            -88.57    -51.34   37.23  UCl5
  UCl5(g)        -105.79    -51.34   54.45  UCl5
  UCl6            -96.36    -38.86   57.50  UCl6
  UCl6(g)        -102.23    -38.86   63.37  UCl6
  UH3(beta)      -255.53    -55.76  199.77  UH3
  UN             -164.35   -122.66   41.70  UN
  UN1.59(alpha)  -154.15   -115.76   38.39  UN1.59
  UN1.73(alpha)  -152.04   -124.75   27.29  UN1.73
  UO(g)          -207.10      4.55  211.65  UO
  UO2(am)         -31.30    -31.19    0.11  UO2
  UO2(g)         -122.84      2.76  125.60  UO2
  UO2(NO3)2       -24.25    -12.30   11.95  UO2(NO3)2
  UO2(NO3)2:2H2O  -17.21    -12.30    4.91  UO2(NO3)2:2H2O
  UO2(NO3)2:3H2O  -15.99    -12.31    3.68  UO2(NO3)2:3H2O
  UO2(NO3)2:6H2O  -14.61    -12.32    2.29  UO2(NO3)2:6H2O
  UO2(NO3)2:H2O   -20.81    -12.30    8.50  UO2(NO3)2:H2O
  UO2(OH)2(beta)   -3.99      0.96    4.95  UO2(OH)2
  UO2.25          -19.84    -24.68   -4.84  UO2.25
  UO2.25(beta)    -19.92    -24.68   -4.76  UO2.25
  UO2.3333(beta)  -35.87    -63.58  -27.71  (UO2.3333)2
  UO2.6667        -21.18    -64.78  -43.60  (UO2.6667)2
  UO2Cl           -24.26    -24.80   -0.53  UO2Cl
  UO2Cl2          -24.42    -12.31   12.11  UO2Cl2
  UO2Cl2(g)       -60.25    -12.31   47.93  UO2Cl2
  UO2Cl2:3H2O     -17.93    -12.32    5.61  UO2Cl2:3H2O
  UO2Cl2:H2O      -20.60    -12.32    8.28  UO2Cl2:H2O
  UO2ClOH:2H2O     -7.99     -5.68    2.30  UO2ClOH:2H2O
  UO2CO3           -6.18    -10.31   -4.13  UO2CO3
  UO3(alpha)       -7.68      0.96    8.64  UO3
  UO3(beta)        -7.35      0.96    8.31  UO3
  UO3(g)          -69.99      0.96   70.95  UO3
  UO3(gamma)       -6.75      0.96    7.71  UO3
  UO3:.9H2O(alpha)  -4.06      0.96    5.02  UO3:.9H2O
  UO3:2H2O         -3.88      0.95    4.84  UO3:2H2O
  UOCl            -78.15    -67.78   10.37  UOCl
  UOCl2           -49.89    -44.47    5.42  UOCl2
  UOCl3           -50.65    -38.07   12.58  UOCl3
  Uraninite       -26.36    -31.19   -4.83  UO2

**For a gas, SI = log10(fugacity). Fugacity = pressure * phi / 1 atm.
  For ideal gases, phi = 1.

------------------
End of simulation.
------------------

------------------------------------
Reading input data for simulation 6.
------------------------------------

	USE SOLUTION 6
	USE SURFACE 6
	USE EQUILIBRIUM_PHASES 6
	END
-----------------------------------------
Beginning of batch-reaction calculations.
-----------------------------------------

Reaction step 1.

Using solution 6.	
Using surface 6.	
Using pure phase assemblage 6.	

-------------------------------Phase assemblage--------------------------------

                                                      Moles in assemblage
Phase               SI  log IAP  log K(T, P)   Initial       Final       Delta

CO2(g)           -3.44   -11.27     -7.83    1.000e+01   1.000e+01  -1.927e-05
Fix_H+           -5.94    -5.94      0.00
	 NaOH               is reactant       1.000e-01   2.282e-04  -9.977e-02
O2(g)            -0.70    -3.59     -2.89    1.000e+01   9.875e+00  -1.252e-01

------------------------------Surface composition------------------------------

Hfo           
	  2.355e-04  Surface charge, eq
Hfo_s         
	  5.964e-06  moles
	                                   Mole                     Log
	Species               Moles    Fraction    Molality    Molality

	Hfo_sOH2+         5.692e-06       0.954   5.687e-06      -5.245
	Hfo_sOH           2.542e-07       0.043   2.540e-07      -6.595
	Hfo_sOUO2+        1.786e-08       0.003   1.784e-08      -7.749
	Hfo_sO-           2.602e-10       0.000   2.599e-10      -9.585

Hfo           
	  2.355e-04  Surface charge, eq
Hfo_w         
	  2.401e-04  moles
	                                   Mole                     Log
	Species               Moles    Fraction    Molality    Molality

	Hfo_wOH2+         2.297e-04       0.957   2.295e-04      -3.639
	Hfo_wOH           1.026e-05       0.043   1.025e-05      -4.989
	Hfo_wOUO2+        8.152e-08       0.000   8.145e-08      -7.089
	Hfo_wO-           1.050e-08       0.000   1.049e-08      -7.979
	Hfo_wOUO2CO3-     1.552e-11       0.000   1.551e-11     -10.809
	Hfo_wOUO2(CO3)2-3   6.843e-15       0.000   6.837e-15     -14.165

-----------------------------Solution composition------------------------------

	Elements           Molality       Moles

	C                 1.925e-05   1.927e-05
	Cl                9.991e-02   1.000e-01
	N                 9.991e-02   1.000e-01
	Na                1.996e-01   1.998e-01
	U                 6.049e-10   6.054e-10

----------------------------Description of solution----------------------------

                                       pH  =   5.940      Charge balance
                                       pe  =  14.662      Adjusted to redox equilibrium
                        Activity of water  =   0.993
                 Ionic strength (mol/kgw)  =   1.979e-01
                       Mass of water (kg)  =   1.001e+00
                 Total alkalinity (eq/kg)  =   5.910e-06
                       Total CO2 (mol/kg)  =   1.925e-05
                         Temperature (°C)  =  25.00
                  Electrical balance (eq)  =  -2.355e-04
 Percent error, 100*(Cat-|An|)/(Cat+|An|)  =  -0.06
                               Iterations  =  17
                                  Total H  = 1.111502e+02
                                  Total O  = 5.587563e+01

----------------------------Distribution of species----------------------------

                                               Log       Log       Log    mole V
   Species          Molality    Activity  Molality  Activity     Gamma   cm³/mol

   H+              1.413e-06   1.148e-06    -5.850    -5.940    -0.090      0.00
   OH-             1.157e-08   8.335e-09    -7.937    -8.079    -0.142     (0)  
   H2O             5.553e+01   9.932e-01     1.744    -0.003     0.000     (0)  
C(-2)         0.000e+00
   C2H4            0.000e+00   0.000e+00  -266.186  -266.186     0.000     (0)  
C(-3)         0.000e+00
   C2H6            0.000e+00   0.000e+00  -260.058  -260.058     0.000     (0)  
C(-4)         0.000e+00
   CH4             0.000e+00   0.000e+00  -148.183  -148.183     0.000     (0)  
C(2)          0.000e+00
   CO              0.000e+00   0.000e+00   -51.147   -51.147     0.000     (0)  
C(4)          1.925e-05
   CO2             1.192e-05   1.250e-05    -4.924    -4.903     0.020     (0)  
   HCO3-           6.365e-06   4.660e-06    -5.196    -5.332    -0.135     (0)  
   NaHCO3          9.654e-07   9.654e-07    -6.015    -6.015     0.000     (0)  
   CO3-2           6.254e-10   1.801e-10    -9.204    -9.745    -0.541     (0)  
   NaCO3-          1.246e-10   9.125e-11    -9.904   -10.040    -0.135     (0)  
   UO2CO3          1.130e-11   1.130e-11   -10.947   -10.947     0.000     (0)  
   UO2(CO3)2-2     1.442e-13   3.915e-14   -12.841   -13.407    -0.566     (0)  
   (UO2)2CO3(OH)3-   3.362e-15   2.462e-15   -14.473   -14.609    -0.135     (0)  
   UO2(CO3)3-4     6.164e-17   3.172e-19   -16.210   -18.499    -2.288     (0)  
   (UO2)3(OH)5CO2+   1.677e-24   1.228e-24   -23.776   -23.911    -0.135     (0)  
   (UO2)3O(OH)2(HCO3)+   1.361e-24   9.966e-25   -23.866   -24.001    -0.135     (0)  
   (UO2)3(CO3)6-6   1.233e-32   8.546e-38   -31.909   -37.068    -5.159     (0)  
   UO2(CO3)3-5     0.000e+00   0.000e+00   -42.303   -45.883    -3.580     (0)  
   U(CO3)4-4       0.000e+00   0.000e+00   -56.463   -58.751    -2.288     (0)  
   U(CO3)5-6       0.000e+00   0.000e+00   -64.419   -69.579    -5.159     (0)  
   (UO2)11(CO3)6(OH)12-2   0.000e+00   0.000e+00   -70.204   -70.770    -0.566     (0)  
Cl(-1)        9.991e-02
   Cl-             9.814e-02   6.948e-02    -1.008    -1.158    -0.150     (0)  
   NaCl            1.769e-03   1.769e-03    -2.752    -2.752     0.000     (0)  
   HCl             1.792e-08   1.792e-08    -7.747    -7.747     0.000     (0)  
   UO2Cl+          1.766e-12   1.293e-12   -11.753   -11.888    -0.135     (0)  
   UO2Cl2          4.599e-15   4.599e-15   -14.337   -14.337     0.000     (0)  
   UCl+3           0.000e+00   0.000e+00   -53.198   -54.372    -1.175     (0)  
Cl(1)         3.786e-17
   HClO            3.668e-17   3.668e-17   -16.436   -16.436     0.000     (0)  
   ClO-            1.177e-18   8.614e-19   -17.929   -18.065    -0.135     (0)  
Cl(3)         1.862e-28
   ClO2-           1.860e-28   1.361e-28   -27.731   -27.866    -0.135     (0)  
   HClO2           2.311e-31   2.311e-31   -30.636   -30.636     0.000     (0)  
Cl(5)         2.125e-24
   ClO3-           2.125e-24   1.531e-24   -23.673   -23.815    -0.142     (0)  
   UO2ClO3+        8.385e-35   6.139e-35   -34.076   -34.212    -0.135     (0)  
Cl(7)         1.193e-24
   ClO4-           1.193e-24   8.594e-25   -23.923   -24.066    -0.142     (0)  
H(0)          0.000e+00
   H2              0.000e+00   0.000e+00   -44.326   -44.305     0.020     (0)  
N(-03)        0.000e+00
   N3-             0.000e+00   0.000e+00   -90.085   -90.221    -0.135     (0)  
   HN3             0.000e+00   0.000e+00   -91.458   -91.458     0.000     (0)  
   UO2N3+          0.000e+00   0.000e+00   -98.408   -98.543    -0.135     (0)  
   UO2(N3)2        0.000e+00   0.000e+00  -187.014  -187.014     0.000     (0)  
   UO2(N3)3-       0.000e+00   0.000e+00  -275.689  -275.824    -0.135     (0)  
   UO2(N3)4-2      0.000e+00   0.000e+00  -366.299  -366.865    -0.566     (0)  
N(-3)         0.000e+00
   NH4+            0.000e+00   0.000e+00   -58.520   -58.679    -0.158     (0)  
   NH3             0.000e+00   0.000e+00   -61.979   -61.979     0.000     (0)  
N(0)          2.655e-13
   N2              1.328e-13   1.328e-13   -12.877   -12.877     0.000     (0)  
N(3)          3.655e-15
   NO2-            3.650e-15   2.584e-15   -14.438   -14.588    -0.150     (0)  
   HNO2            5.063e-18   5.063e-18   -17.296   -17.296     0.000     (0)  
N(5)          9.991e-02
   NO3-            9.991e-02   7.073e-02    -1.000    -1.150    -0.150     (0)  
   HNO3            4.247e-09   4.247e-09    -8.372    -8.372     0.000     (0)  
   UO2NO3+         2.306e-12   1.688e-12   -11.637   -11.773    -0.135     (0)  
   UNO3+3          0.000e+00   0.000e+00   -53.457   -54.631    -1.175     (0)  
   U(NO3)2+2       0.000e+00   0.000e+00   -54.431   -54.971    -0.541     (0)  
Na            1.996e-01
   Na+             1.978e-01   1.448e-01    -0.704    -0.839    -0.135     (0)  
   NaCl            1.769e-03   1.769e-03    -2.752    -2.752     0.000     (0)  
   NaHCO3          9.654e-07   9.654e-07    -6.015    -6.015     0.000     (0)  
   NaOH            2.083e-10   2.083e-10    -9.681    -9.681     0.000     (0)  
   NaCO3-          1.246e-10   9.125e-11    -9.904   -10.040    -0.135     (0)  
O(0)          4.889e-04
   O2              2.445e-04   2.562e-04    -3.612    -3.591     0.020     (0)  
U(3)          0.000e+00
   U+3             0.000e+00   0.000e+00   -77.769   -78.944    -1.175     (0)  
U(4)          1.894e-36
   U(OH)4          1.894e-36   1.894e-36   -35.723   -35.723     0.000     (0)  
   UOH+3           0.000e+00   0.000e+00   -48.366   -49.540    -1.175     (0)  
   U+4             0.000e+00   0.000e+00   -52.922   -54.931    -2.009     (0)  
   UCl+3           0.000e+00   0.000e+00   -53.198   -54.372    -1.175     (0)  
   UNO3+3          0.000e+00   0.000e+00   -53.457   -54.631    -1.175     (0)  
   U(NO3)2+2       0.000e+00   0.000e+00   -54.431   -54.971    -0.541     (0)  
   U(CO3)4-4       0.000e+00   0.000e+00   -56.463   -58.751    -2.288     (0)  
   U(CO3)5-6       0.000e+00   0.000e+00   -64.419   -69.579    -5.159     (0)  
U(5)          1.125e-24
   UO2+            1.125e-24   8.235e-25   -23.949   -24.084    -0.135     (0)  
   UO2(CO3)3-5     0.000e+00   0.000e+00   -42.303   -45.883    -3.580     (0)  
U(6)          6.049e-10
   UO2(OH)2        4.537e-10   4.537e-10    -9.343    -9.343     0.000     (0)  
   UO2OH+          9.150e-11   6.699e-11   -10.039   -10.174    -0.135     (0)  
   UO2+2           4.345e-11   1.251e-11   -10.362   -10.903    -0.541     (0)  
   UO2CO3          1.130e-11   1.130e-11   -10.947   -10.947     0.000     (0)  
   UO2NO3+         2.306e-12   1.688e-12   -11.637   -11.773    -0.135     (0)  
   UO2Cl+          1.766e-12   1.293e-12   -11.753   -11.888    -0.135     (0)  
   UO2(OH)3-       6.638e-13   4.860e-13   -12.178   -12.313    -0.135     (0)  
   UO2(CO3)2-2     1.442e-13   3.915e-14   -12.841   -13.407    -0.566     (0)  
   UO2Cl2          4.599e-15   4.599e-15   -14.337   -14.337     0.000     (0)  
   (UO2)2CO3(OH)3-   3.362e-15   2.462e-15   -14.473   -14.609    -0.135     (0)  
   (UO2)2(OH)2+2   9.458e-16   2.723e-16   -15.024   -15.565    -0.541     (0)  
   UO2(CO3)3-4     6.164e-17   3.172e-19   -16.210   -18.499    -2.288     (0)  
   (UO2)2OH+3      3.972e-18   2.657e-19   -17.401   -18.576    -1.175     (0)  
   (UO2)3(OH)5+    3.301e-19   2.417e-19   -18.481   -18.617    -0.135     (0)  
   UO2(OH)4-2      2.412e-20   6.552e-21   -19.618   -20.184    -0.566     (0)  
   (UO2)3(OH)4+2   4.485e-21   1.291e-21   -20.348   -20.889    -0.541     (0)  
   (UO2)3(OH)7-    8.627e-23   6.316e-23   -22.064   -22.200    -0.135     (0)  
   (UO2)3(OH)5CO2+   1.677e-24   1.228e-24   -23.776   -23.911    -0.135     (0)  
   (UO2)3O(OH)2(HCO3)+   1.361e-24   9.966e-25   -23.866   -24.001    -0.135     (0)  
   (UO2)4(OH)7+    1.359e-24   9.947e-25   -23.867   -24.002    -0.135     (0)  
   (UO2)3(CO3)6-6   1.233e-32   8.546e-38   -31.909   -37.068    -5.159     (0)  
   UO2ClO3+        8.385e-35   6.139e-35   -34.076   -34.212    -0.135     (0)  
   (UO2)11(CO3)6(OH)12-2   0.000e+00   0.000e+00   -70.204   -70.770    -0.566     (0)  
   UO2N3+          0.000e+00   0.000e+00   -98.408   -98.543    -0.135     (0)  
   UO2(N3)2        0.000e+00   0.000e+00  -187.014  -187.014     0.000     (0)  
   UO2(N3)3-       0.000e+00   0.000e+00  -275.689  -275.824    -0.135     (0)  
   UO2(N3)4-2      0.000e+00   0.000e+00  -366.299  -366.865    -0.566     (0)  

------------------------------Saturation indices-------------------------------

  Phase               SI** log IAP   log K(298 K,   1 atm)

  (UO2)2Cl3       -51.14    -38.46   12.68  (UO2)2Cl3
  C               -71.82     -7.68   64.15  C
  C(g)           -189.44     -7.68  181.77  C
  CH4(g)         -145.34   -148.18   -2.84  CH4
  Cl2(g)          -18.98    -15.99    2.99  Cl2
  CO(g)           -48.15    -51.15   -3.00  CO
  CO2(g)           -3.44    -11.27   -7.83  CO2
  Fix_H+           -5.94     -5.94    0.00  H+
  H2(g)           -41.20    -44.31   -3.10  H2
  H2O(g)           -1.59     -0.00    1.59  H2O
  Halite           -3.56     -2.00    1.56  NaCl
  HCl(g)          -13.40     -7.10    6.30  HCl
  Ice              -0.14     -0.00    0.14  H2O
  N2(g)            -9.70    -12.88   -3.18  N2
  Na              -61.37      6.00   67.37  Na
  Na(g)           -74.86      6.00   80.86  Na
  Na2CO3          -12.23     -1.07   11.16  Na2CO3
  Na2CO3:7H2O     -11.03     -1.09    9.94  Na2CO3:7H2O
  Na2O            -57.22     10.20   67.42  Na2O
  Na2U2O7         -10.44     12.15   22.59  Na2U2O7
  Na2UO4(alpha)   -18.84     11.17   30.02  Na2UO4
  Na3UO4          -59.09     -2.85   56.24  Na3UO4
  Na4UO2(CO3)3    -16.47    -12.43    4.04  Na4UO2(CO3)3
  Nahcolite        -6.03     -6.17   -0.14  NaHCO3
  Natron          -10.69     -1.10    9.59  Na2CO3:10H2O
  NaUO3           -21.38    -13.05    8.33  NaUO3
  NH3(g)          -63.77    -61.98    1.80  NH3
  NO(g)           -20.37    -19.63    0.74  NO
  NO2(g)          -14.54     -6.19    8.35  NO2
  O2(g)            -0.70     -3.59   -2.89  O2
  Rutherfordine    -6.17    -10.29   -4.12  UO2CO3
  Schoepite        -3.87      0.97    4.83  UO3:2H2O
  Schoepite-dehy(.393)  -5.75      0.97    6.72  UO3:.393H2O
  Schoepite-dehy(.648)  -5.23      0.97    6.21  UO3:.648H2O
  Schoepite-dehy(.85)  -4.13      0.97    5.10  UO3:.85H2O
  Schoepite-dehy(.9)  -4.05      0.97    5.02  UO3:.9H2O
  Schoepite-dehy(1.0)  -4.13      0.97    5.10  UO3:H2O
  Thermonatrite   -12.01     -1.07   10.94  Na2CO3:H2O
  U              -206.40      6.36  212.77  U
  U(CO3)2         -61.23    -53.71    7.52  U(CO3)2
  U(g)           -291.96      6.36  298.32  U
  U2C3           -595.12   -139.90  455.21  U2C3
  U2Cl10(g)      -189.86   -107.26   82.60  U2Cl10
  U2Cl8(g)       -201.40   -119.13   82.27  U2Cl8
  U2O2Cl5        -103.99    -84.81   19.19  U2O2Cl5
  U5O12Cl         -79.03    -97.83  -18.79  U5O12Cl
  UC             -260.90    -66.11  194.79  UC
  UC1.94(alpha)  -330.45    -73.33  257.12  UC1.94
  UCl(g)         -243.40    -21.65  221.75  UCl
  UCl2(g)        -193.37     -9.63  183.74  UCl2
  UCl3            -95.39    -82.42   12.97  UCl3
  UCl3(g)        -141.00    -82.42   58.58  UCl3
  UCl4            -81.48    -59.56   21.92  UCl4
  UCl4(g)        -105.91    -59.56   46.35  UCl4
  UCl5            -90.86    -53.63   37.23  UCl5
  UCl5(g)        -108.08    -53.63   54.45  UCl5
  UCl6            -99.10    -41.61   57.50  UCl6
  UCl6(g)        -104.97    -41.61   63.37  UCl6
  UH3(beta)      -255.51    -55.75  199.77  UH3
  UN             -164.80   -123.10   41.70  UN
  UN1.59(alpha)  -154.87   -116.48   38.39  UN1.59
  UN1.73(alpha)  -152.82   -125.53   27.29  UN1.73
  UO(g)          -207.08      4.57  211.65  UO
  UO2(am)         -31.29    -31.18    0.11  UO2
  UO2(g)         -122.82      2.77  125.60  UO2
  UO2(NO3)2       -25.16    -13.20   11.95  UO2(NO3)2
  UO2(NO3)2:2H2O  -18.12    -13.21    4.91  UO2(NO3)2:2H2O
  UO2(NO3)2:3H2O  -16.90    -13.21    3.68  UO2(NO3)2:3H2O
  UO2(NO3)2:6H2O  -15.51    -13.22    2.29  UO2(NO3)2:6H2O
  UO2(NO3)2:H2O   -21.71    -13.21    8.50  UO2(NO3)2:H2O
  UO2(OH)2(beta)   -3.98      0.97    4.95  UO2(OH)2
  UO2.25          -19.83    -24.66   -4.84  UO2.25
  UO2.25(beta)    -19.90    -24.66   -4.76  UO2.25
  UO2.3333(beta)  -35.84    -63.55  -27.71  (UO2.3333)2
  UO2.6667        -21.15    -64.75  -43.60  (UO2.6667)2
  UO2Cl           -24.71    -25.24   -0.53  UO2Cl
  UO2Cl2          -25.33    -13.22   12.11  UO2Cl2
  UO2Cl2(g)       -61.15    -13.22   47.93  UO2Cl2
  UO2Cl2:3H2O     -18.84    -13.23    5.61  UO2Cl2:3H2O
  UO2Cl2:H2O      -21.51    -13.22    8.28  UO2Cl2:H2O
  UO2ClOH:2H2O     -8.43     -6.13    2.30  UO2ClOH:2H2O
  UO2CO3           -6.17    -10.29   -4.13  UO2CO3
  UO3(alpha)       -7.67      0.97    8.64  UO3
  UO3(beta)        -7.34      0.97    8.31  UO3
  UO3(g)          -69.98      0.97   70.95  UO3
  UO3(gamma)       -6.73      0.97    7.71  UO3
  UO3:.9H2O(alpha)  -4.05      0.97    5.02  UO3:.9H2O
  UO3:2H2O         -3.87      0.97    4.84  UO3:2H2O
  UOCl            -78.59    -68.22   10.37  UOCl
  UOCl2           -50.79    -45.37    5.42  UOCl2
  UOCl3           -52.02    -39.44   12.58  UOCl3
  Uraninite       -26.34    -31.18   -4.83  UO2

**For a gas, SI = log10(fugacity). Fugacity = pressure * phi / 1 atm.
  For ideal gases, phi = 1.

------------------
End of simulation.
------------------

------------------------------------
Reading input data for simulation 7.
------------------------------------

-------------------------------
End of Run after 1.879 Seconds.
-------------------------------

